AMOSTRA/GOI/Trafos.dss
! ==========================================================
! TRANSFORMADORES DE DISTRIBUICAO — gerados de UNTRMT/EQTRMT
! Secundario 1F/2F: 3 enrolamentos com derivacao central
! Neutro no no 4, aterrado em _ATERRAMENTO.dss
! Kv de BT conforme TEN_LIN_SE da BDGD
! ==========================================================
New Transformer.2912977 phases=3 windings=2 Xhl=1.200
~ wdg=1 bus=13109-11395818.1.2.3 conn=delta Kv=13.8 Kva=45.0 %R=0.500
~ wdg=2 bus=2912977-11395802.1.2.3.4 conn=wye Kv=0.2200 Kva=45.0 %R=0.500
New Transformer.2912978 phases=3 windings=2 Xhl=1.200
~ wdg=1 bus=13109-11395820.1.2.3 conn=delta Kv=13.8 Kva=45.0 %R=0.500
~ wdg=2 bus=2912978-11395808.1.2.3.4 conn=wye Kv=0.2200 Kva=45.0 %R=0.500
New Transformer.2969140 phases=3 windings=2 Xhl=1.200
~ wdg=1 bus=13109-11507141.1.2.3 conn=delta Kv=13.8 Kva=75.0 %R=0.500
~ wdg=2 bus=2969140-11588570.1.2.3.4 conn=wye Kv=0.2200 Kva=75.0 %R=0.500
New Transformer.3041323 phases=3 windings=2 Xhl=1.200
~ wdg=1 bus=13109-11967876.1.2.3 conn=delta Kv=13.8 Kva=75.0 %R=0.500
~ wdg=2 bus=3041323-11967876v.1.2.3.4 conn=wye Kv=0.2200 Kva=75.0 %R=0.500
New Transformer.3108410 phases=3 windings=2 Xhl=1.200
~ wdg=1 bus=13109-12396822.1.2.3 conn=delta Kv=13.8 Kva=112.5 %R=0.500
~ wdg=2 bus=3108410-12396822v.1.2.3.4 conn=wye Kv=0.2200 Kva=112.5 %R=0.500
New Transformer.3129828 phases=1 windings=3 Xhl=1.200 Xht=1.200 Xlt=0.600
~ wdg=1 bus=13109-12536118.1 conn=wye Kv=7.9674 Kva=10.0 %R=0.500
~ wdg=2 bus=3129828-12536118v.1.4 conn=wye Kv=0.1100 Kva=10.0 %R=0.500
~ wdg=3 bus=3129828-12536118v.4.2 conn=wye Kv=0.1100 Kva=10.0 %R=0.500
New Transformer.3201481 phases=1 windings=3 Xhl=1.200 Xht=1.200 Xlt=0.600
~ wdg=1 bus=13109-13091628.1 conn=wye Kv=7.9674 Kva=10.0 %R=0.500
~ wdg=2 bus=3201481-13091628v.1.4 conn=wye Kv=0.1100 Kva=10.0 %R=0.500
~ wdg=3 bus=3201481-13091628v.4.2 conn=wye Kv=0.1100 Kva=10.0 %R=0.500
New Transformer.3206895 phases=3 windings=2 Xhl=1.200
~ wdg=1 bus=13109-13142019.1.2.3 conn=delta Kv=13.8 Kva=45.0 %R=0.500
~ wdg=2 bus=3206895-13142019v.1.2.3.4 conn=wye Kv=0.2200 Kva=45.0 %R=0.500
New Transformer.2395669 phases=3 windings=2 Xhl=1.200
~ wdg=1 bus=13109-8840144.1.2.3 conn=delta Kv=13.8 Kva=45.0 %R=0.500
~ wdg=2 bus=2395669-8840145.1.2.3.4 conn=wye Kv=0.2200 Kva=45.0 %R=0.500
New Transformer.2395728 phases=3 windings=2 Xhl=1.200
~ wdg=1 bus=13109-8840146.1.2.3 conn=delta Kv=13.8 Kva=75.0 %R=0.500
~ wdg=2 bus=2395728-8840147.1.2.3.4 conn=wye Kv=0.2200 Kva=75.0 %R=0.500
New Transformer.2395644 phases=3 windings=2 Xhl=1.200
~ wdg=1 bus=13109-8840148.1.2.3 conn=delta Kv=13.8 Kva=75.0 %R=0.500
~ wdg=2 bus=2395644-8840149.1.2.3.4 conn=wye Kv=0.2200 Kva=75.0 %R=0.500
New Transformer.2395628 phases=3 windings=2 Xhl=1.200
~ wdg=1 bus=13109-8840157.1.2.3 conn=delta Kv=13.8 Kva=75.0 %R=0.500
~ wdg=2 bus=2395628-8840158.1.2.3.4 conn=wye Kv=0.2200 Kva=75.0 %R=0.500
New Transformer.2395663 phases=3 windings=2 Xhl=1.200
~ wdg=1 bus=13109-8840315.1.2.3 conn=delta Kv=13.8 Kva=30.0 %R=0.500
~ wdg=2 bus=2395663-8840315v.1.2.3.4 conn=wye Kv=0.2200 Kva=30.0 %R=0.500
New Transformer.2395771 phases=1 windings=3 Xhl=1.200 Xht=1.200 Xlt=0.600
~ wdg=1 bus=13109-8840330.2 conn=wye Kv=7.9674 Kva=5.0 %R=0.500
~ wdg=2 bus=2395771-8840330v.1.4 conn=wye Kv=0.1100 Kva=5.0 %R=0.500
~ wdg=3 bus=2395771-8840330v.4.2 conn=wye Kv=0.1100 Kva=5.0 %R=0.500
New Transformer.3023876 phases=3 windings=2 Xhl=1.200
~ wdg=1 bus=13109-8840433.1.2.3 conn=delta Kv=13.8 Kva=45.0 %R=0.500
~ wdg=2 bus=3023876-8840433v.1.2.3.4 conn=wye Kv=0.2200 Kva=45.0 %R=0.500
New Transformer.2395672 phases=3 windings=2 Xhl=1.200
~ wdg=1 bus=13109-8840491.1.2.3 conn=delta Kv=13.8 Kva=45.0 %R=0.500
~ wdg=2 bus=2395672-8840492.1.2.3.4 conn=wye Kv=0.2200 Kva=45.0 %R=0.500
New Transformer.2395641 phases=3 windings=2 Xhl=1.200
~ wdg=1 bus=13109-8840493.1.2.3 conn=delta Kv=13.8 Kva=15.0 %R=0.500
~ wdg=2 bus=2395641-8840493v.1.2.3.4 conn=wye Kv=0.2200 Kva=15.0 %R=0.500
New Transformer.2395667 phases=1 windings=3 Xhl=1.200 Xht=1.200 Xlt=0.600
~ wdg=1 bus=13109-8840496.2 conn=wye Kv=7.9674 Kva=5.0 %R=0.500
~ wdg=2 bus=2395667-8840496v.1.4 conn=wye Kv=0.1100 Kva=5.0 %R=0.500
~ wdg=3 bus=2395667-8840496v.4.2 conn=wye Kv=0.1100 Kva=5.0 %R=0.500
New Transformer.2395696 phases=3 windings=2 Xhl=1.200
~ wdg=1 bus=13109-8840593.1.2.3 conn=delta Kv=13.8 Kva=45.0 %R=0.500
~ wdg=2 bus=2395696-8840594.1.2.3.4 conn=wye Kv=0.2200 Kva=45.0 %R=0.500
New Transformer.2395803 phases=3 windings=2 Xhl=1.200
~ wdg=1 bus=13109-8840597.1.2.3 conn=delta Kv=13.8 Kva=45.0 %R=0.500
~ wdg=2 bus=2395803-8840598.1.2.3.4 conn=wye Kv=0.2200 Kva=45.0 %R=0.500
New Transformer.2395716 phases=3 windings=2 Xhl=1.200
~ wdg=1 bus=13109-8840669.1.2.3 conn=delta Kv=13.8 Kva=150.0 %R=0.500
~ wdg=2 bus=2395716-8840670.1.2.3.4 conn=wye Kv=0.2200 Kva=150.0 %R=0.500
New Transformer.2395789 phases=1 windings=3 Xhl=1.200 Xht=1.200 Xlt=0.600
~ wdg=1 bus=13109-8840843.1 conn=wye Kv=7.9674 Kva=10.0 %R=0.500
~ wdg=2 bus=2395789-8840843v.1.4 conn=wye Kv=0.1100 Kva=10.0 %R=0.500
~ wdg=3 bus=2395789-8840843v.4.2 conn=wye Kv=0.1100 Kva=10.0 %R=0.500
New Transformer.2395804 phases=3 windings=2 Xhl=1.200
~ wdg=1 bus=13109-8840877.1.2.3 conn=delta Kv=13.8 Kva=150.0 %R=0.500
~ wdg=2 bus=2395804-8840878.1.2.3.4 conn=wye Kv=0.2200 Kva=150.0 %R=0.500
New Transformer.2395791 phases=3 windings=2 Xhl=1.200
~ wdg=1 bus=13109-8840881.1.2.3 conn=delta Kv=13.8 Kva=45.0 %R=0.500
~ wdg=2 bus=2395791-8840882.1.2.3.4 conn=wye Kv=0.2200 Kva=45.0 %R=0.500
New Transformer.2395792 phases=3 windings=2 Xhl=1.200
~ wdg=1 bus=13109-8840888.1.2.3 conn=delta Kv=13.8 Kva=112.5 %R=0.500
~ wdg=2 bus=2395792-8840889.1.2.3.4 conn=wye Kv=0.2200 Kva=112.5 %R=0.500
New Transformer.2395664 phases=3 windings=2 Xhl=1.200
~ wdg=1 bus=13109-8840891.1.2.3 conn=delta Kv=13.8 Kva=45.0 %R=0.500
~ wdg=2 bus=2395664-8840891v.1.2.3.4 conn=wye Kv=0.2200 Kva=45.0 %R=0.500
New Transformer.2395767 phases=3 windings=2 Xhl=1.200
~ wdg=1 bus=13109-8840963.1.2.3 conn=delta Kv=13.8 Kva=15.0 %R=0.500
~ wdg=2 bus=2395767-8840964.1.2.3.4 conn=wye Kv=0.2200 Kva=15.0 %R=0.500
New Transformer.2996289 phases=3 windings=2 Xhl=1.200
~ wdg=1 bus=13109-8841157.1.2.3 conn=delta Kv=13.8 Kva=75.0 %R=0.500
~ wdg=2 bus=2996289-8841158.1.2.3.4 conn=wye Kv=0.2200 Kva=75.0 %R=0.500
New Transformer.2395695 phases=3 windings=2 Xhl=1.200
~ wdg=1 bus=13109-8841159.1.2.3 conn=delta Kv=13.8 Kva=45.0 %R=0.500
~ wdg=2 bus=2395695-8841160.1.2.3.4 conn=wye Kv=0.2200 Kva=45.0 %R=0.500
New Transformer.2395690 phases=3 windings=2 Xhl=1.200
~ wdg=1 bus=13109-8841161.1.2.3 conn=delta Kv=13.8 Kva=112.5 %R=0.500
~ wdg=2 bus=2395690-8841162.1.2.3.4 conn=wye Kv=0.2200 Kva=112.5 %R=0.500
New Transformer.2395698 phases=3 windings=2 Xhl=1.200
~ wdg=1 bus=13109-8841164.1.2.3 conn=delta Kv=13.8 Kva=45.0 %R=0.500
~ wdg=2 bus=2395698-8841164v.1.2.3.4 conn=wye Kv=0.2200 Kva=45.0 %R=0.500
New Transformer.2395691 phases=3 windings=2 Xhl=1.200
~ wdg=1 bus=13109-8841168.1.2.3 conn=delta Kv=13.8 Kva=112.5 %R=0.500
~ wdg=2 bus=2395691-8841169.1.2.3.4 conn=wye Kv=0.2200 Kva=112.5 %R=0.500
New Transformer.2395623 phases=3 windings=2 Xhl=1.200
~ wdg=1 bus=13109-8841229.1.2.3 conn=delta Kv=13.8 Kva=112.5 %R=0.500
~ wdg=2 bus=2395623-8841230.1.2.3.4 conn=wye Kv=0.2200 Kva=112.5 %R=0.500
New Transformer.2395720 phases=3 windings=2 Xhl=1.200
~ wdg=1 bus=13109-8841232.1.2.3 conn=delta Kv=13.8 Kva=75.0 %R=0.500
~ wdg=2 bus=2395720-8841233.1.2.3.4 conn=wye Kv=0.2200 Kva=75.0 %R=0.500
New Transformer.2395774 phases=3 windings=2 Xhl=1.200
~ wdg=1 bus=13109-8841268.1.2.3 conn=delta Kv=13.8 Kva=45.0 %R=0.500
~ wdg=2 bus=2395774-8841269.1.2.3.4 conn=wye Kv=0.2200 Kva=45.0 %R=0.500
New Transformer.2395724 phases=1 windings=3 Xhl=1.200 Xht=1.200 Xlt=0.600
~ wdg=1 bus=13109-8841337.3 conn=wye Kv=7.9674 Kva=75.0 %R=0.500
~ wdg=2 bus=2395724-8841338.1.4 conn=wye Kv=0.1100 Kva=75.0 %R=0.500
~ wdg=3 bus=2395724-8841338.4.2 conn=wye Kv=0.1100 Kva=75.0 %R=0.500
New Transformer.2395727 phases=3 windings=2 Xhl=1.200
~ wdg=1 bus=13109-8841339.1.2.3 conn=delta Kv=13.8 Kva=75.0 %R=0.500
~ wdg=2 bus=2395727-8841339v.1.2.3.4 conn=wye Kv=0.2200 Kva=75.0 %R=0.500
New Transformer.2395734 phases=3 windings=2 Xhl=1.200
~ wdg=1 bus=13109-8841433.1.2.3 conn=delta Kv=13.8 Kva=45.0 %R=0.500
~ wdg=2 bus=2395734-8841434.1.2.3.4 conn=wye Kv=0.2200 Kva=45.0 %R=0.500
New Transformer.2395661 phases=3 windings=2 Xhl=1.200
~ wdg=1 bus=13109-8841520.1.2.3 conn=delta Kv=13.8 Kva=75.0 %R=0.500
~ wdg=2 bus=2395661-8841521.1.2.3.4 conn=wye Kv=0.2200 Kva=75.0 %R=0.500
New Transformer.2395773 phases=3 windings=2 Xhl=1.200
~ wdg=1 bus=13109-8841522.1.2.3 conn=delta Kv=13.8 Kva=75.0 %R=0.500
~ wdg=2 bus=2395773-8841523.1.2.3.4 conn=wye Kv=0.2200 Kva=75.0 %R=0.500
New Transformer.2395763 phases=3 windings=2 Xhl=1.200
~ wdg=1 bus=13109-8841528.1.2.3 conn=delta Kv=13.8 Kva=75.0 %R=0.500
~ wdg=2 bus=2395763-8841528v.1.2.3.4 conn=wye Kv=0.2200 Kva=75.0 %R=0.500
New Transformer.2398211 phases=1 windings=3 Xhl=1.200 Xht=1.200 Xlt=0.600
~ wdg=1 bus=13120-8861777.3 conn=wye Kv=7.9674 Kva=10.0 %R=0.500
~ wdg=2 bus=2398211-8861777v.1.4 conn=wye Kv=0.1100 Kva=10.0 %R=0.500
~ wdg=3 bus=2398211-8861777v.4.2 conn=wye Kv=0.1100 Kva=10.0 %R=0.500
New Transformer.2858588 phases=3 windings=2 Xhl=1.200
~ wdg=1 bus=13146-11316079.1.2.3 conn=delta Kv=13.8 Kva=45.0 %R=0.500
~ wdg=2 bus=2858588-11316092.1.2.3.4 conn=wye Kv=0.2200 Kva=45.0 %R=0.500
New Transformer.3042922 phases=3 windings=2 Xhl=1.200
~ wdg=1 bus=13146-11979853.1.2.3 conn=delta Kv=13.8 Kva=75.0 %R=0.500
~ wdg=2 bus=3042922-11979853v.1.2.3.4 conn=wye Kv=0.2200 Kva=75.0 %R=0.500
New Transformer.3073505 phases=3 windings=2 Xhl=1.200
~ wdg=1 bus=13146-12172791.1.2.3 conn=delta Kv=13.8 Kva=75.0 %R=0.500
~ wdg=2 bus=3073505-12172791v.1.2.3.4 conn=wye Kv=0.2200 Kva=75.0 %R=0.500
New Transformer.3077481 phases=3 windings=2 Xhl=1.200
~ wdg=1 bus=13146-12204629.1.2.3 conn=delta Kv=13.8 Kva=45.0 %R=0.500
~ wdg=2 bus=3077481-8955295.1.2.3.4 conn=wye Kv=0.2200 Kva=45.0 %R=0.500
New Transformer.3169656 phases=3 windings=2 Xhl=1.200
~ wdg=1 bus=13146-12804521.1.2.3 conn=delta Kv=13.8 Kva=75.0 %R=0.500
~ wdg=2 bus=3169656-12804521v.1.2.3.4 conn=wye Kv=0.2200 Kva=75.0 %R=0.500
New Transformer.3184744 phases=3 windings=2 Xhl=1.200
~ wdg=1 bus=13146-12927008.1.2.3 conn=delta Kv=13.8 Kva=75.0 %R=0.500
~ wdg=2 bus=3184744-12927008v.1.2.3.4 conn=wye Kv=0.2200 Kva=75.0 %R=0.500
New Transformer.2417052 phases=3 windings=2 Xhl=1.200
~ wdg=1 bus=13146-8955133.1.2.3 conn=delta Kv=13.8 Kva=112.5 %R=0.500
~ wdg=2 bus=2417052-8955134.1.2.3.4 conn=wye Kv=0.2200 Kva=112.5 %R=0.500
New Transformer.2417053 phases=3 windings=2 Xhl=1.200
~ wdg=1 bus=13146-8955135.1.2.3 conn=delta Kv=13.8 Kva=30.0 %R=0.500
~ wdg=2 bus=2417053-8955135v.1.2.3.4 conn=wye Kv=0.2200 Kva=30.0 %R=0.500
New Transformer.2416966 phases=3 windings=2 Xhl=1.200
~ wdg=1 bus=13146-8955213.1.2.3 conn=delta Kv=13.8 Kva=15.0 %R=0.500
~ wdg=2 bus=2416966-8955213v.1.2.3.4 conn=wye Kv=0.2200 Kva=15.0 %R=0.500
New Transformer.2417010 phases=3 windings=2 Xhl=1.200
~ wdg=1 bus=13146-8955215.1.2.3 conn=delta Kv=13.8 Kva=45.0 %R=0.500
~ wdg=2 bus=2417010-8955216.1.2.3.4 conn=wye Kv=0.2200 Kva=45.0 %R=0.500
New Transformer.2417060 phases=3 windings=2 Xhl=1.200
~ wdg=1 bus=13146-8955320.1.2.3 conn=delta Kv=13.8 Kva=45.0 %R=0.500
~ wdg=2 bus=2417060-8955321.1.2.3.4 conn=wye Kv=0.2200 Kva=45.0 %R=0.500
New Transformer.2416972 phases=3 windings=2 Xhl=1.200
~ wdg=1 bus=13146-8955383.1.2.3 conn=delta Kv=13.8 Kva=75.0 %R=0.500
~ wdg=2 bus=2416972-8955384.1.2.3.4 conn=wye Kv=0.2200 Kva=75.0 %R=0.500
New Transformer.2417011 phases=3 windings=2 Xhl=1.200
~ wdg=1 bus=13146-8955386.1.2.3 conn=delta Kv=13.8 Kva=30.0 %R=0.500
~ wdg=2 bus=2417011-8955387.1.2.3.4 conn=wye Kv=0.2200 Kva=30.0 %R=0.500
New Transformer.2417028 phases=3 windings=2 Xhl=1.200
~ wdg=1 bus=13146-8955392.1.2.3 conn=delta Kv=13.8 Kva=112.5 %R=0.500
~ wdg=2 bus=2417028-8955392v.1.2.3.4 conn=wye Kv=0.2200 Kva=112.5 %R=0.500
New Transformer.2417046 phases=3 windings=2 Xhl=1.200
~ wdg=1 bus=13146-8955480.1.2.3 conn=delta Kv=13.8 Kva=112.5 %R=0.500
~ wdg=2 bus=2417046-8955481.1.2.3.4 conn=wye Kv=0.2200 Kva=112.5 %R=0.500
New Transformer.2417061 phases=3 windings=2 Xhl=1.200
~ wdg=1 bus=13146-8955482.1.2.3 conn=delta Kv=13.8 Kva=45.0 %R=0.500
~ wdg=2 bus=2417061-8955483.1.2.3.4 conn=wye Kv=0.2200 Kva=45.0 %R=0.500
New Transformer.3105530 phases=3 windings=2 Xhl=1.200
~ wdg=1 bus=13146-8955486.1.2.3 conn=delta Kv=13.8 Kva=75.0 %R=0.500
~ wdg=2 bus=3105530-8955487.1.2.3.4 conn=wye Kv=0.2200 Kva=75.0 %R=0.500
New Transformer.2416944 phases=3 windings=2 Xhl=1.200
~ wdg=1 bus=13146-8955547.1.2.3 conn=delta Kv=13.8 Kva=112.5 %R=0.500
~ wdg=2 bus=2416944-8955548.1.2.3.4 conn=wye Kv=0.2200 Kva=112.5 %R=0.500
New Transformer.2416997 phases=3 windings=2 Xhl=1.200
~ wdg=1 bus=13146-8955549.1.2.3 conn=delta Kv=13.8 Kva=112.5 %R=0.500
~ wdg=2 bus=2416997-8955549v.1.2.3.4 conn=wye Kv=0.2200 Kva=112.5 %R=0.500
New Transformer.2416981 phases=3 windings=2 Xhl=1.200
~ wdg=1 bus=13146-8955550.1.2.3 conn=delta Kv=13.8 Kva=45.0 %R=0.500
~ wdg=2 bus=2416981-8955551.1.2.3.4 conn=wye Kv=0.2200 Kva=45.0 %R=0.500
New Transformer.2416964 phases=3 windings=2 Xhl=1.200
~ wdg=1 bus=13146-8955560.1.2.3 conn=delta Kv=13.8 Kva=75.0 %R=0.500
~ wdg=2 bus=2416964-8955560v.1.2.3.4 conn=wye Kv=0.2200 Kva=75.0 %R=0.500
New Transformer.2416982 phases=3 windings=2 Xhl=1.200
~ wdg=1 bus=13146-8955643.1.2.3 conn=delta Kv=13.8 Kva=30.0 %R=0.500
~ wdg=2 bus=2416982-8955644.1.2.3.4 conn=wye Kv=0.2200 Kva=30.0 %R=0.500
New Transformer.2416983 phases=3 windings=2 Xhl=1.200
~ wdg=1 bus=13146-8955705.1.2.3 conn=delta Kv=13.8 Kva=30.0 %R=0.500
~ wdg=2 bus=2416983-8955706.1.2.3.4 conn=wye Kv=0.2200 Kva=30.0 %R=0.500
New Transformer.2417023 phases=3 windings=2 Xhl=1.200
~ wdg=1 bus=13146-8955718.1.2.3 conn=delta Kv=13.8 Kva=45.0 %R=0.500
~ wdg=2 bus=2417023-8955719.1.2.3.4 conn=wye Kv=0.2200 Kva=45.0 %R=0.500
New Transformer.2416951 phases=3 windings=2 Xhl=1.200
~ wdg=1 bus=13146-8955720.1.2.3 conn=delta Kv=13.8 Kva=75.0 %R=0.500
~ wdg=2 bus=2416951-8955720v.1.2.3.4 conn=wye Kv=0.2200 Kva=75.0 %R=0.500
New Transformer.2416969 phases=3 windings=2 Xhl=1.200
~ wdg=1 bus=13146-8955755.1.2.3 conn=delta Kv=13.8 Kva=45.0 %R=0.500
~ wdg=2 bus=2416969-8955756.1.2.3.4 conn=wye Kv=0.2200 Kva=45.0 %R=0.500
New Transformer.2417008 phases=3 windings=2 Xhl=1.200
~ wdg=1 bus=13146-8955757.1.2.3 conn=delta Kv=13.8 Kva=75.0 %R=0.500
~ wdg=2 bus=2417008-8955758.1.2.3.4 conn=wye Kv=0.2200 Kva=75.0 %R=0.500
New Transformer.2417027 phases=3 windings=2 Xhl=1.200
~ wdg=1 bus=13146-8955767.1.2.3 conn=delta Kv=13.8 Kva=75.0 %R=0.500
~ wdg=2 bus=2417027-8955768.1.2.3.4 conn=wye Kv=0.2200 Kva=75.0 %R=0.500
New Transformer.3008449 phases=3 windings=2 Xhl=1.200
~ wdg=1 bus=13146-8955821.1.2.3 conn=delta Kv=13.8 Kva=112.5 %R=0.500
~ wdg=2 bus=3008449-8955822.1.2.3.4 conn=wye Kv=0.2200 Kva=112.5 %R=0.500
New Transformer.2417013 phases=3 windings=2 Xhl=1.200
~ wdg=1 bus=13146-8955823.1.2.3 conn=delta Kv=13.8 Kva=45.0 %R=0.500
~ wdg=2 bus=2417013-8955824.1.2.3.4 conn=wye Kv=0.2200 Kva=45.0 %R=0.500
New Transformer.3196573 phases=3 windings=2 Xhl=1.200
~ wdg=1 bus=13146-8955832.1.2.3 conn=delta Kv=13.8 Kva=45.0 %R=0.500
~ wdg=2 bus=3196573-8955832v.1.2.3.4 conn=wye Kv=0.2200 Kva=45.0 %R=0.500
New Transformer.2416968 phases=3 windings=2 Xhl=1.200
~ wdg=1 bus=13146-8955869.1.2.3 conn=delta Kv=13.8 Kva=45.0 %R=0.500
~ wdg=2 bus=2416968-8955870.1.2.3.4 conn=wye Kv=0.2200 Kva=45.0 %R=0.500
New Transformer.2417054 phases=3 windings=2 Xhl=1.200
~ wdg=1 bus=13146-8955884.1.2.3 conn=delta Kv=13.8 Kva=112.5 %R=0.500
~ wdg=2 bus=2417054-8955884v.1.2.3.4 conn=wye Kv=0.2200 Kva=112.5 %R=0.500
New Transformer.2416945 phases=3 windings=2 Xhl=1.200
~ wdg=1 bus=13146-8955973.1.2.3 conn=delta Kv=13.8 Kva=75.0 %R=0.500
~ wdg=2 bus=2416945-8955974.1.2.3.4 conn=wye Kv=0.2200 Kva=75.0 %R=0.500
New Transformer.2416946 phases=3 windings=2 Xhl=1.200
~ wdg=1 bus=13146-8955975.1.2.3 conn=delta Kv=13.8 Kva=45.0 %R=0.500
~ wdg=2 bus=2416946-8955976.1.2.3.4 conn=wye Kv=0.2200 Kva=45.0 %R=0.500
New Transformer.2416952 phases=3 windings=2 Xhl=1.200
~ wdg=1 bus=13146-8956043.1.2.3 conn=delta Kv=13.8 Kva=45.0 %R=0.500
~ wdg=2 bus=2416952-8956043v.1.2.3.4 conn=wye Kv=0.2200 Kva=45.0 %R=0.500
New Transformer.2417005 phases=3 windings=2 Xhl=1.200
~ wdg=1 bus=13146-8956055.1.2.3 conn=delta Kv=13.8 Kva=75.0 %R=0.500
~ wdg=2 bus=2417005-8956056.1.2.3.4 conn=wye Kv=0.2200 Kva=75.0 %R=0.500
New Transformer.2416943 phases=3 windings=2 Xhl=1.200
~ wdg=1 bus=13146-8956184.1.2.3 conn=delta Kv=13.8 Kva=75.0 %R=0.500
~ wdg=2 bus=2416943-8956185.1.2.3.4 conn=wye Kv=0.2200 Kva=75.0 %R=0.500
New Transformer.2417020 phases=1 windings=3 Xhl=1.200 Xht=1.200 Xlt=0.600
~ wdg=1 bus=13146-8956196.1 conn=wye Kv=7.9674 Kva=15.0 %R=0.500
~ wdg=2 bus=2417020-8956196v.1.4 conn=wye Kv=0.1100 Kva=15.0 %R=0.500
~ wdg=3 bus=2417020-8956196v.4.2 conn=wye Kv=0.1100 Kva=15.0 %R=0.500
New Transformer.2417024 phases=3 windings=2 Xhl=1.200
~ wdg=1 bus=13146-8956201.1.2.3 conn=delta Kv=13.8 Kva=75.0 %R=0.500
~ wdg=2 bus=2417024-8956202.1.2.3.4 conn=wye Kv=0.2200 Kva=75.0 %R=0.500
New Transformer.2417039 phases=3 windings=2 Xhl=1.200
~ wdg=1 bus=13146-8956203.1.2.3 conn=delta Kv=13.8 Kva=75.0 %R=0.500
~ wdg=2 bus=2417039-8956204.1.2.3.4 conn=wye Kv=0.2200 Kva=75.0 %R=0.500
New Transformer.2417025 phases=3 windings=2 Xhl=1.200
~ wdg=1 bus=13146-8956309.1.2.3 conn=delta Kv=13.8 Kva=75.0 %R=0.500
~ wdg=2 bus=2417025-8956310.1.2.3.4 conn=wye Kv=0.2200 Kva=75.0 %R=0.500
New Transformer.3066548 phases=3 windings=2 Xhl=1.200
~ wdg=1 bus=19642-11555854.1.2.3 conn=delta Kv=13.8 Kva=45.0 %R=0.500
~ wdg=2 bus=3066548-12120554.1.2.3.4 conn=wye Kv=0.2200 Kva=45.0 %R=0.500
New Transformer.3131606 phases=3 windings=2 Xhl=1.200
~ wdg=1 bus=19642-12546928.1.2.3 conn=delta Kv=13.8 Kva=75.0 %R=0.500
~ wdg=2 bus=3131606-12546928v.1.2.3.4 conn=wye Kv=0.2200 Kva=75.0 %R=0.500
New Transformer.2395639 phases=3 windings=2 Xhl=1.200
~ wdg=1 bus=19642-8840323.1.2.3 conn=delta Kv=13.8 Kva=75.0 %R=0.500
~ wdg=2 bus=2395639-8840324.1.2.3.4 conn=wye Kv=0.2200 Kva=75.0 %R=0.500
New Transformer.2395770 phases=1 windings=3 Xhl=1.200 Xht=1.200 Xlt=0.600
~ wdg=1 bus=19642-8840327.3 conn=wye Kv=7.9674 Kva=10.0 %R=0.500
~ wdg=2 bus=2395770-8840328.1.4 conn=wye Kv=0.1100 Kva=10.0 %R=0.500
~ wdg=3 bus=2395770-8840328.4.2 conn=wye Kv=0.1100 Kva=10.0 %R=0.500
New Transformer.2395717 phases=3 windings=2 Xhl=1.200
~ wdg=1 bus=19642-8840849.1.2.3 conn=delta Kv=13.8 Kva=112.5 %R=0.500
~ wdg=2 bus=2395717-8840849v.1.2.3.4 conn=wye Kv=0.2200 Kva=112.5 %R=0.500
New Transformer.2395630 phases=3 windings=2 Xhl=1.200
~ wdg=1 bus=19642-8840994.1.2.3 conn=delta Kv=13.8 Kva=75.0 %R=0.500
~ wdg=2 bus=2395630-8840995.1.2.3.4 conn=wye Kv=0.2200 Kva=75.0 %R=0.500
New Transformer.2410855 phases=1 windings=3 Xhl=1.200 Xht=1.200 Xlt=0.600
~ wdg=1 bus=13137-8901349.1 conn=wye Kv=7.9674 Kva=10.0 %R=0.500
~ wdg=2 bus=2410855-8901349v.1.4 conn=wye Kv=0.1100 Kva=10.0 %R=0.500
~ wdg=3 bus=2410855-8901349v.4.2 conn=wye Kv=0.1100 Kva=10.0 %R=0.500
New Transformer.2417004 phases=3 windings=2 Xhl=1.200
~ wdg=1 bus=13146-8955546.1.2.3 conn=delta Kv=13.8 Kva=112.5 %R=0.500
~ wdg=2 bus=2417004-8955546v.1.2.3.4 conn=wye Kv=0.2200 Kva=112.5 %R=0.500
New Transformer.2417029 phases=3 windings=2 Xhl=1.200
~ wdg=1 bus=13146-8955707.1.2.3 conn=delta Kv=13.8 Kva=112.5 %R=0.500
~ wdg=2 bus=2417029-8955707v.1.2.3.4 conn=wye Kv=0.2200 Kva=112.5 %R=0.500
New Transformer.2398116 phases=1 windings=3 Xhl=1.200 Xht=1.200 Xlt=0.600
~ wdg=1 bus=13120-8862966.3 conn=wye Kv=7.9674 Kva=5.0 %R=0.500
~ wdg=2 bus=2398116-8862966v.1.4 conn=wye Kv=0.1100 Kva=5.0 %R=0.500
~ wdg=3 bus=2398116-8862966v.4.2 conn=wye Kv=0.1100 Kva=5.0 %R=0.500
New Transformer.2410971 phases=3 windings=2 Xhl=1.200
~ wdg=1 bus=13137-8907674.1.2.3 conn=delta Kv=13.8 Kva=45.0 %R=0.500
~ wdg=2 bus=2410971-8907674v.1.2.3.4 conn=wye Kv=0.2200 Kva=45.0 %R=0.500
New Transformer.2416940 phases=3 windings=2 Xhl=1.200
~ wdg=1 bus=13146-8955558.1.2.3 conn=delta Kv=13.8 Kva=75.0 %R=0.500
~ wdg=2 bus=2416940-8955558v.1.2.3.4 conn=wye Kv=0.2200 Kva=75.0 %R=0.500
New Transformer.2395736 phases=3 windings=2 Xhl=1.200
~ wdg=1 bus=13109-8840161.1.2.3 conn=delta Kv=13.8 Kva=112.5 %R=0.500
~ wdg=2 bus=2395736-8840161v.1.2.3.4 conn=wye Kv=0.2200 Kva=112.5 %R=0.500
New Transformer.2411625 phases=3 windings=2 Xhl=1.200
~ wdg=1 bus=13137-8905109.1.2.3 conn=delta Kv=13.8 Kva=15.0 %R=0.500
~ wdg=2 bus=2411625-8905109v.1.2.3.4 conn=wye Kv=0.2200 Kva=15.0 %R=0.500
New Transformer.2411096 phases=1 windings=3 Xhl=1.200 Xht=1.200 Xlt=0.600
~ wdg=1 bus=13137-8906316.2 conn=wye Kv=7.9674 Kva=10.0 %R=0.500
~ wdg=2 bus=2411096-8906316v.1.4 conn=wye Kv=0.1100 Kva=10.0 %R=0.500
~ wdg=3 bus=2411096-8906316v.4.2 conn=wye Kv=0.1100 Kva=10.0 %R=0.500
New Transformer.2395689 phases=3 windings=2 Xhl=1.200
~ wdg=1 bus=13109-8840504.1.2.3 conn=delta Kv=13.8 Kva=500.0 %R=0.500
~ wdg=2 bus=2395689-8840504v.1.2.3.4 conn=wye Kv=0.2200 Kva=500.0 %R=0.500
New Transformer.2412234 phases=1 windings=3 Xhl=1.200 Xht=1.200 Xlt=0.600
~ wdg=1 bus=13137-8902976.3 conn=wye Kv=7.9674 Kva=15.0 %R=0.500
~ wdg=2 bus=2412234-8902976v.1.4 conn=wye Kv=0.1100 Kva=15.0 %R=0.500
~ wdg=3 bus=2412234-8902976v.4.2 conn=wye Kv=0.1100 Kva=15.0 %R=0.500
New Transformer.2416987 phases=3 windings=2 Xhl=1.200
~ wdg=1 bus=13146-8956200.1.2.3 conn=delta Kv=13.8 Kva=75.0 %R=0.500
~ wdg=2 bus=2416987-8956200v.1.2.3.4 conn=wye Kv=0.2200 Kva=75.0 %R=0.500
New Transformer.2417045 phases=3 windings=2 Xhl=1.200
~ wdg=1 bus=13146-8956206.1.2.3 conn=delta Kv=13.8 Kva=45.0 %R=0.500
~ wdg=2 bus=2417045-8956206v.1.2.3.4 conn=wye Kv=0.2200 Kva=45.0 %R=0.500
New Transformer.2395805 phases=3 windings=2 Xhl=1.200
~ wdg=1 bus=13109-8841176.1.2.3 conn=delta Kv=13.8 Kva=150.0 %R=0.500
~ wdg=2 bus=2395805-8841176v.1.2.3.4 conn=wye Kv=0.2200 Kva=150.0 %R=0.500
New Transformer.2395671 phases=3 windings=2 Xhl=1.200
~ wdg=1 bus=13109-8841335.1.2.3 conn=delta Kv=13.8 Kva=45.0 %R=0.500
~ wdg=2 bus=2395671-8841335v.1.2.3.4 conn=wye Kv=0.2200 Kva=45.0 %R=0.500
New Transformer.2395794 phases=3 windings=2 Xhl=1.200
~ wdg=1 bus=13109-8841525.1.2.3 conn=delta Kv=13.8 Kva=112.5 %R=0.500
~ wdg=2 bus=2395794-8841525v.1.2.3.4 conn=wye Kv=0.2200 Kva=112.5 %R=0.500
New Transformer.2395626 phases=3 windings=2 Xhl=1.200
~ wdg=1 bus=13109-8841173.1.2.3 conn=delta Kv=13.8 Kva=15.0 %R=0.500
~ wdg=2 bus=2395626-8841173v.1.2.3.4 conn=wye Kv=0.2200 Kva=15.0 %R=0.500
New Transformer.2411471 phases=3 windings=2 Xhl=1.200
~ wdg=1 bus=13137-8903107.1.2.3 conn=delta Kv=13.8 Kva=112.5 %R=0.500
~ wdg=2 bus=2411471-8903107v.1.2.3.4 conn=wye Kv=0.2200 Kva=112.5 %R=0.500
New Transformer.2416986 phases=3 windings=2 Xhl=1.200
~ wdg=1 bus=13146-8955710.1.2.3 conn=delta Kv=13.8 Kva=112.5 %R=0.500
~ wdg=2 bus=2416986-8955710v.1.2.3.4 conn=wye Kv=0.2200 Kva=112.5 %R=0.500
New Transformer.2395764 phases=3 windings=2 Xhl=1.200
~ wdg=1 bus=13109-8840494.1.2.3 conn=delta Kv=13.8 Kva=112.5 %R=0.500
~ wdg=2 bus=2395764-8840494v.1.2.3.4 conn=wye Kv=0.2200 Kva=112.5 %R=0.500
New Transformer.3123681 phases=3 windings=2 Xhl=1.200
~ wdg=1 bus=19642-12500142.1.2.3 conn=delta Kv=13.8 Kva=112.5 %R=0.500
~ wdg=2 bus=3123681-12500142v.1.2.3.4 conn=wye Kv=0.2200 Kva=112.5 %R=0.500
New Transformer.3200206 phases=3 windings=2 Xhl=1.200
~ wdg=1 bus=13137-13082842.1.2.3 conn=delta Kv=13.8 Kva=75.0 %R=0.500
~ wdg=2 bus=3200206-13082842v.1.2.3.4 conn=wye Kv=0.2200 Kva=75.0 %R=0.500
New Transformer.2411980 phases=1 windings=3 Xhl=1.200 Xht=1.200 Xlt=0.600
~ wdg=1 bus=13137-8905076.1 conn=wye Kv=7.9674 Kva=15.0 %R=0.500
~ wdg=2 bus=2411980-8905076v.1.4 conn=wye Kv=0.1100 Kva=15.0 %R=0.500
~ wdg=3 bus=2411980-8905076v.4.2 conn=wye Kv=0.1100 Kva=15.0 %R=0.500
New Transformer.2412039 phases=1 windings=3 Xhl=1.200 Xht=1.200 Xlt=0.600
~ wdg=1 bus=13137-8905084.3 conn=wye Kv=7.9674 Kva=15.0 %R=0.500
~ wdg=2 bus=2412039-8905084v.1.4 conn=wye Kv=0.1100 Kva=15.0 %R=0.500
~ wdg=3 bus=2412039-8905084v.4.2 conn=wye Kv=0.1100 Kva=15.0 %R=0.500
New Transformer.2410991 phases=3 windings=2 Xhl=1.200
~ wdg=1 bus=13137-8908806.1.2.3 conn=delta Kv=13.8 Kva=225.0 %R=0.500
~ wdg=2 bus=2410991-8908806v.1.2.3.4 conn=wye Kv=0.2200 Kva=225.0 %R=0.500
New Transformer.2416967 phases=3 windings=2 Xhl=1.200
~ wdg=1 bus=13146-8955555.1.2.3 conn=delta Kv=13.8 Kva=112.5 %R=0.500
~ wdg=2 bus=2416967-8955555v.1.2.3.4 conn=wye Kv=0.2200 Kva=112.5 %R=0.500
New Transformer.2395768 phases=3 windings=2 Xhl=1.200
~ wdg=1 bus=13109-8840162.1.2.3 conn=delta Kv=13.8 Kva=75.0 %R=0.500
~ wdg=2 bus=2395768-8840162v.1.2.3.4 conn=wye Kv=0.2200 Kva=75.0 %R=0.500
New Transformer.3151894 phases=1 windings=3 Xhl=1.200 Xht=1.200 Xlt=0.600
~ wdg=1 bus=13137-12664606.1 conn=wye Kv=7.9674 Kva=10.0 %R=0.500
~ wdg=2 bus=3151894-12664892.1.4 conn=wye Kv=0.1100 Kva=10.0 %R=0.500
~ wdg=3 bus=3151894-12664892.4.2 conn=wye Kv=0.1100 Kva=10.0 %R=0.500
New Transformer.2411597 phases=1 windings=3 Xhl=1.200 Xht=1.200 Xlt=0.600
~ wdg=1 bus=13137-8901357.1 conn=wye Kv=7.9674 Kva=15.0 %R=0.500
~ wdg=2 bus=2411597-8901357v.1.4 conn=wye Kv=0.1100 Kva=15.0 %R=0.500
~ wdg=3 bus=2411597-8901357v.4.2 conn=wye Kv=0.1100 Kva=15.0 %R=0.500
New Transformer.2417043 phases=3 windings=2 Xhl=1.200
~ wdg=1 bus=13146-8955885.1.2.3 conn=delta Kv=13.8 Kva=75.0 %R=0.500
~ wdg=2 bus=2417043-8955885v.1.2.3.4 conn=wye Kv=0.2200 Kva=75.0 %R=0.500
New Transformer.2416985 phases=3 windings=2 Xhl=1.200
~ wdg=1 bus=13146-8956059.1.2.3 conn=delta Kv=13.8 Kva=150.0 %R=0.500
~ wdg=2 bus=2416985-8956059v.1.2.3.4 conn=wye Kv=0.2200 Kva=150.0 %R=0.500
New Transformer.2416970 phases=3 windings=2 Xhl=1.200
~ wdg=1 bus=13146-8955888.1.2.3 conn=delta Kv=13.8 Kva=112.5 %R=0.500
~ wdg=2 bus=2416970-8955888v.1.2.3.4 conn=wye Kv=0.2200 Kva=112.5 %R=0.500
New Transformer.2411681 phases=1 windings=3 Xhl=1.200 Xht=1.200 Xlt=0.600
~ wdg=1 bus=13137-8901360.3 conn=wye Kv=7.9674 Kva=15.0 %R=0.500
~ wdg=2 bus=2411681-8901360v.1.4 conn=wye Kv=0.1100 Kva=15.0 %R=0.500
~ wdg=3 bus=2411681-8901360v.4.2 conn=wye Kv=0.1100 Kva=15.0 %R=0.500
New Transformer.2395670 phases=3 windings=2 Xhl=1.200
~ wdg=1 bus=13109-8841330.1.2.3 conn=delta Kv=13.8 Kva=112.5 %R=0.500
~ wdg=2 bus=2395670-8841330v.1.2.3.4 conn=wye Kv=0.2200 Kva=112.5 %R=0.500
New Transformer.2412078 phases=1 windings=3 Xhl=1.200 Xht=1.200 Xlt=0.600
~ wdg=1 bus=13137-8901320.2 conn=wye Kv=7.9674 Kva=5.0 %R=0.500
~ wdg=2 bus=2412078-8901320v.1.4 conn=wye Kv=0.1100 Kva=5.0 %R=0.500
~ wdg=3 bus=2412078-8901320v.4.2 conn=wye Kv=0.1100 Kva=5.0 %R=0.500
New Transformer.2417042 phases=3 windings=2 Xhl=1.200
~ wdg=1 bus=13146-8955220.1.2.3 conn=delta Kv=13.8 Kva=75.0 %R=0.500
~ wdg=2 bus=2417042-8955220v.1.2.3.4 conn=wye Kv=0.2200 Kva=75.0 %R=0.500
New Transformer.2417044 phases=3 windings=2 Xhl=1.200
~ wdg=1 bus=13146-8956317.1.2.3 conn=delta Kv=13.8 Kva=150.0 %R=0.500
~ wdg=2 bus=2417044-8956317v.1.2.3.4 conn=wye Kv=0.2200 Kva=150.0 %R=0.500
New Transformer.2395796 phases=3 windings=2 Xhl=1.200
~ wdg=1 bus=13109-8841163.1.2.3 conn=delta Kv=13.8 Kva=112.5 %R=0.500
~ wdg=2 bus=2395796-8841163v.1.2.3.4 conn=wye Kv=0.2200 Kva=112.5 %R=0.500
New Transformer.2412290 phases=3 windings=2 Xhl=1.200
~ wdg=1 bus=13137-8902304.1.2.3 conn=delta Kv=13.8 Kva=45.0 %R=0.500
~ wdg=2 bus=2412290-8902304v.1.2.3.4 conn=wye Kv=0.2200 Kva=45.0 %R=0.500
New Transformer.2397786 phases=3 windings=2 Xhl=1.200
~ wdg=1 bus=13120-8861797.1.2.3 conn=delta Kv=13.8 Kva=112.5 %R=0.500
~ wdg=2 bus=2397786-8861797v.1.2.3.4 conn=wye Kv=0.2200 Kva=112.5 %R=0.500
New Transformer.2411624 phases=1 windings=3 Xhl=1.200 Xht=1.200 Xlt=0.600
~ wdg=1 bus=13137-8905077.3 conn=wye Kv=7.9674 Kva=15.0 %R=0.500
~ wdg=2 bus=2411624-8905077v.1.4 conn=wye Kv=0.1100 Kva=15.0 %R=0.500
~ wdg=3 bus=2411624-8905077v.4.2 conn=wye Kv=0.1100 Kva=15.0 %R=0.500
New Transformer.2395659 phases=3 windings=2 Xhl=1.200
~ wdg=1 bus=13109-8841336.1.2.3 conn=delta Kv=13.8 Kva=30.0 %R=0.500
~ wdg=2 bus=2395659-8841336v.1.2.3.4 conn=wye Kv=0.2200 Kva=30.0 %R=0.500
New Transformer.2395660 phases=3 windings=2 Xhl=1.200
~ wdg=1 bus=13109-8840848.1.2.3 conn=delta Kv=13.8 Kva=15.0 %R=0.500
~ wdg=2 bus=2395660-8840848v.1.2.3.4 conn=wye Kv=0.2200 Kva=15.0 %R=0.500
New Transformer.2395697 phases=3 windings=2 Xhl=1.200
~ wdg=1 bus=13109-8840996.1.2.3 conn=delta Kv=13.8 Kva=112.5 %R=0.500
~ wdg=2 bus=2395697-8840996v.1.2.3.4 conn=wye Kv=0.2200 Kva=112.5 %R=0.500
New Transformer.2412076 phases=1 windings=3 Xhl=1.200 Xht=1.200 Xlt=0.600
~ wdg=1 bus=13137-8902277.1 conn=wye Kv=7.9674 Kva=10.0 %R=0.500
~ wdg=2 bus=2412076-8902277v.1.4 conn=wye Kv=0.1100 Kva=10.0 %R=0.500
~ wdg=3 bus=2412076-8902277v.4.2 conn=wye Kv=0.1100 Kva=10.0 %R=0.500
New Transformer.2411478 phases=3 windings=2 Xhl=1.200
~ wdg=1 bus=13137-8901365.1.2.3 conn=delta Kv=13.8 Kva=15.0 %R=0.500
~ wdg=2 bus=2411478-8901365v.1.2.3.4 conn=wye Kv=0.2200 Kva=15.0 %R=0.500
New Transformer.2395668 phases=3 windings=2 Xhl=1.200
~ wdg=1 bus=13109-8841332.1.2.3 conn=delta Kv=13.8 Kva=15.0 %R=0.500
~ wdg=2 bus=2395668-8841332v.1.2.3.4 conn=wye Kv=0.2200 Kva=15.0 %R=0.500
New Transformer.2395642 phases=3 windings=2 Xhl=1.200
~ wdg=1 bus=13109-8841334.1.2.3 conn=delta Kv=13.8 Kva=112.5 %R=0.500
~ wdg=2 bus=2395642-8841334v.1.2.3.4 conn=wye Kv=0.2200 Kva=112.5 %R=0.500
New Transformer.2410846 phases=1 windings=3 Xhl=1.200 Xht=1.200 Xlt=0.600
~ wdg=1 bus=13137-8905036.1 conn=wye Kv=7.9674 Kva=10.0 %R=0.500
~ wdg=2 bus=2410846-8905036v.1.4 conn=wye Kv=0.1100 Kva=10.0 %R=0.500
~ wdg=3 bus=2410846-8905036v.4.2 conn=wye Kv=0.1100 Kva=10.0 %R=0.500
New Transformer.2412020 phases=1 windings=3 Xhl=1.200 Xht=1.200 Xlt=0.600
~ wdg=1 bus=13137-8907675.3 conn=wye Kv=7.9674 Kva=15.0 %R=0.500
~ wdg=2 bus=2412020-8907675v.1.4 conn=wye Kv=0.1100 Kva=15.0 %R=0.500
~ wdg=3 bus=2412020-8907675v.4.2 conn=wye Kv=0.1100 Kva=15.0 %R=0.500
New Transformer.2398367 phases=3 windings=2 Xhl=1.200
~ wdg=1 bus=13120-8863650.1.2.3 conn=delta Kv=13.8 Kva=30.0 %R=0.500
~ wdg=2 bus=2398367-8863650v.1.2.3.4 conn=wye Kv=0.2200 Kva=30.0 %R=0.500
New Transformer.2412034 phases=1 windings=3 Xhl=1.200 Xht=1.200 Xlt=0.600
~ wdg=1 bus=13137-8908803.1 conn=wye Kv=7.9674 Kva=10.0 %R=0.500
~ wdg=2 bus=2412034-8908803v.1.4 conn=wye Kv=0.1100 Kva=10.0 %R=0.500
~ wdg=3 bus=2412034-8908803v.4.2 conn=wye Kv=0.1100 Kva=10.0 %R=0.500
New Transformer.2417026 phases=3 windings=2 Xhl=1.200
~ wdg=1 bus=13146-13089057.1.2.3 conn=delta Kv=13.8 Kva=75.0 %R=0.500
~ wdg=2 bus=2417026-13089057v.1.2.3.4 conn=wye Kv=0.2200 Kva=75.0 %R=0.500
New Transformer.2417056 phases=3 windings=2 Xhl=1.200
~ wdg=1 bus=13146-8955559.1.2.3 conn=delta Kv=13.8 Kva=75.0 %R=0.500
~ wdg=2 bus=2417056-8955559v.1.2.3.4 conn=wye Kv=0.2200 Kva=75.0 %R=0.500
New Transformer.2395744 phases=3 windings=2 Xhl=1.200
~ wdg=1 bus=19642-8840322.1.2.3 conn=delta Kv=13.8 Kva=150.0 %R=0.500
~ wdg=2 bus=2395744-8840322v.1.2.3.4 conn=wye Kv=0.2200 Kva=150.0 %R=0.500
New Transformer.2411370 phases=3 windings=2 Xhl=1.200
~ wdg=1 bus=13137-8902287.1.2.3 conn=delta Kv=13.8 Kva=45.0 %R=0.500
~ wdg=2 bus=2411370-8902287v.1.2.3.4 conn=wye Kv=0.2200 Kva=45.0 %R=0.500
New Transformer.2398138 phases=1 windings=3 Xhl=1.200 Xht=1.200 Xlt=0.600
~ wdg=1 bus=13120-8861757.3 conn=wye Kv=7.9674 Kva=10.0 %R=0.500
~ wdg=2 bus=2398138-8861757v.1.4 conn=wye Kv=0.1100 Kva=10.0 %R=0.500
~ wdg=3 bus=2398138-8861757v.4.2 conn=wye Kv=0.1100 Kva=10.0 %R=0.500
New Transformer.3042820 phases=3 windings=2 Xhl=1.200
~ wdg=1 bus=13109-11978546.1.2.3 conn=delta Kv=13.8 Kva=112.5 %R=0.500
~ wdg=2 bus=3042820-11978546v.1.2.3.4 conn=wye Kv=0.2200 Kva=112.5 %R=0.500
New Transformer.2395737 phases=3 windings=2 Xhl=1.200
~ wdg=1 bus=13109-13197010.1.2.3 conn=delta Kv=13.8 Kva=225.0 %R=0.500
~ wdg=2 bus=2395737-13197010v.1.2.3.4 conn=wye Kv=0.2200 Kva=225.0 %R=0.500
New Transformer.2843246 phases=3 windings=2 Xhl=1.200
~ wdg=1 bus=13146-11245999.1.2.3 conn=delta Kv=13.8 Kva=45.0 %R=0.500
~ wdg=2 bus=2843246-11245999v.1.2.3.4 conn=wye Kv=0.2200 Kva=45.0 %R=0.500
New Transformer.2410946 phases=3 windings=2 Xhl=1.200
~ wdg=1 bus=13137-8900347.1.2.3 conn=delta Kv=13.8 Kva=30.0 %R=0.500
~ wdg=2 bus=2410946-8900347v.1.2.3.4 conn=wye Kv=0.2200 Kva=30.0 %R=0.500
New Transformer.2416978 phases=3 windings=2 Xhl=1.200
~ wdg=1 bus=13146-8955214.1.2.3 conn=delta Kv=13.8 Kva=150.0 %R=0.500
~ wdg=2 bus=2416978-8955214v.1.2.3.4 conn=wye Kv=0.2200 Kva=150.0 %R=0.500
New Transformer.2417012 phases=3 windings=2 Xhl=1.200
~ wdg=1 bus=13146-8955715.1.2.3 conn=delta Kv=13.8 Kva=75.0 %R=0.500
~ wdg=2 bus=2417012-8955715v.1.2.3.4 conn=wye Kv=0.2200 Kva=75.0 %R=0.500
New Transformer.2395795 phases=3 windings=2 Xhl=1.200
~ wdg=1 bus=13109-8840332.1.2.3 conn=delta Kv=13.8 Kva=75.0 %R=0.500
~ wdg=2 bus=2395795-8840332v.1.2.3.4 conn=wye Kv=0.2200 Kva=75.0 %R=0.500
New Transformer.2411231 phases=3 windings=2 Xhl=1.200
~ wdg=1 bus=13137-8908807.1.2.3 conn=delta Kv=13.8 Kva=112.5 %R=0.500
~ wdg=2 bus=2411231-8908807v.1.2.3.4 conn=wye Kv=0.2200 Kva=112.5 %R=0.500
New Transformer.2416948 phases=3 windings=2 Xhl=1.200
~ wdg=1 bus=13146-8955554.1.2.3 conn=delta Kv=13.8 Kva=75.0 %R=0.500
~ wdg=2 bus=2416948-8955554v.1.2.3.4 conn=wye Kv=0.2200 Kva=75.0 %R=0.500
New Transformer.2417058 phases=3 windings=2 Xhl=1.200
~ wdg=1 bus=13146-8955557.1.2.3 conn=delta Kv=13.8 Kva=112.5 %R=0.500
~ wdg=2 bus=2417058-8955557v.1.2.3.4 conn=wye Kv=0.2200 Kva=112.5 %R=0.500
New Transformer.2417022 phases=3 windings=2 Xhl=1.200
~ wdg=1 bus=13146-8956199.1.2.3 conn=delta Kv=13.8 Kva=30.0 %R=0.500
~ wdg=2 bus=2417022-8956199v.1.2.3.4 conn=wye Kv=0.2200 Kva=30.0 %R=0.500
New Transformer.2395793 phases=3 windings=2 Xhl=1.200
~ wdg=1 bus=13109-8841331.1.2.3 conn=delta Kv=13.8 Kva=45.0 %R=0.500
~ wdg=2 bus=2395793-8841331v.1.2.3.4 conn=wye Kv=0.2200 Kva=45.0 %R=0.500
New Transformer.2412222 phases=1 windings=3 Xhl=1.200 Xht=1.200 Xlt=0.600
~ wdg=1 bus=13137-8900036.1 conn=wye Kv=7.9674 Kva=10.0 %R=0.500
~ wdg=2 bus=2412222-8900036v.1.4 conn=wye Kv=0.1100 Kva=10.0 %R=0.500
~ wdg=3 bus=2412222-8900036v.4.2 conn=wye Kv=0.1100 Kva=10.0 %R=0.500
New Transformer.2410814 phases=1 windings=3 Xhl=1.200 Xht=1.200 Xlt=0.600
~ wdg=1 bus=13137-8903093.3 conn=wye Kv=7.9674 Kva=15.0 %R=0.500
~ wdg=2 bus=2410814-8903093v.1.4 conn=wye Kv=0.1100 Kva=15.0 %R=0.500
~ wdg=3 bus=2410814-8903093v.4.2 conn=wye Kv=0.1100 Kva=15.0 %R=0.500
New Transformer.3114774 phases=3 windings=2 Xhl=1.200
~ wdg=1 bus=13109-12451857.1.2.3 conn=delta Kv=13.8 Kva=112.5 %R=0.500
~ wdg=2 bus=3114774-12451857v.1.2.3.4 conn=wye Kv=0.2200 Kva=112.5 %R=0.500
New Transformer.2411074 phases=1 windings=3 Xhl=1.200 Xht=1.200 Xlt=0.600
~ wdg=1 bus=13137-8908848.2 conn=wye Kv=7.9674 Kva=15.0 %R=0.500
~ wdg=2 bus=2411074-8908848v.1.4 conn=wye Kv=0.1100 Kva=15.0 %R=0.500
~ wdg=3 bus=2411074-8908848v.4.2 conn=wye Kv=0.1100 Kva=15.0 %R=0.500
New Transformer.2410834 phases=1 windings=3 Xhl=1.200 Xht=1.200 Xlt=0.600
~ wdg=1 bus=13137-8901318.2 conn=wye Kv=7.9674 Kva=10.0 %R=0.500
~ wdg=2 bus=2410834-8901318v.1.4 conn=wye Kv=0.1100 Kva=10.0 %R=0.500
~ wdg=3 bus=2410834-8901318v.4.2 conn=wye Kv=0.1100 Kva=10.0 %R=0.500
New Transformer.2395646 phases=3 windings=2 Xhl=1.200
~ wdg=1 bus=13109-8840319.1.2.3 conn=delta Kv=13.8 Kva=112.5 %R=0.500
~ wdg=2 bus=2395646-8840319v.1.2.3.4 conn=wye Kv=0.2200 Kva=112.5 %R=0.500
New Transformer.3042861 phases=3 windings=2 Xhl=1.200
~ wdg=1 bus=13137-11978843.1.2.3 conn=delta Kv=13.8 Kva=45.0 %R=0.500
~ wdg=2 bus=3042861-11978843v.1.2.3.4 conn=wye Kv=0.2200 Kva=45.0 %R=0.500
New Transformer.2412067 phases=1 windings=3 Xhl=1.200 Xht=1.200 Xlt=0.600
~ wdg=1 bus=13137-8901348.3 conn=wye Kv=7.9674 Kva=10.0 %R=0.500
~ wdg=2 bus=2412067-8901348v.1.4 conn=wye Kv=0.1100 Kva=10.0 %R=0.500
~ wdg=3 bus=2412067-8901348v.4.2 conn=wye Kv=0.1100 Kva=10.0 %R=0.500
New Transformer.2410856 phases=1 windings=3 Xhl=1.200 Xht=1.200 Xlt=0.600
~ wdg=1 bus=13137-8907581.3 conn=wye Kv=7.9674 Kva=15.0 %R=0.500
~ wdg=2 bus=2410856-8907581v.1.4 conn=wye Kv=0.1100 Kva=15.0 %R=0.500
~ wdg=3 bus=2410856-8907581v.4.2 conn=wye Kv=0.1100 Kva=15.0 %R=0.500
New Transformer.2412304 phases=1 windings=3 Xhl=1.200 Xht=1.200 Xlt=0.600
~ wdg=1 bus=13137-8907686.2 conn=wye Kv=7.9674 Kva=5.0 %R=0.500
~ wdg=2 bus=2412304-8907686v.1.4 conn=wye Kv=0.1100 Kva=5.0 %R=0.500
~ wdg=3 bus=2412304-8907686v.4.2 conn=wye Kv=0.1100 Kva=5.0 %R=0.500
New Transformer.2411117 phases=3 windings=2 Xhl=1.200
~ wdg=1 bus=13137-8902284.1.2.3 conn=delta Kv=13.8 Kva=45.0 %R=0.500
~ wdg=2 bus=2411117-8902284v.1.2.3.4 conn=wye Kv=0.2200 Kva=45.0 %R=0.500
New Transformer.2410885 phases=3 windings=2 Xhl=1.200
~ wdg=1 bus=13137-8903913.1.2.3 conn=delta Kv=13.8 Kva=45.0 %R=0.500
~ wdg=2 bus=2410885-8903913v.1.2.3.4 conn=wye Kv=0.2200 Kva=45.0 %R=0.500
New Transformer.2417009 phases=3 windings=2 Xhl=1.200
~ wdg=1 bus=13146-8955219.1.2.3 conn=delta Kv=13.8 Kva=75.0 %R=0.500
~ wdg=2 bus=2417009-8955219v.1.2.3.4 conn=wye Kv=0.2200 Kva=75.0 %R=0.500
New Transformer.2417059 phases=3 windings=2 Xhl=1.200
~ wdg=1 bus=13146-8956052.1.2.3 conn=delta Kv=13.8 Kva=112.5 %R=0.500
~ wdg=2 bus=2417059-8956052v.1.2.3.4 conn=wye Kv=0.2200 Kva=112.5 %R=0.500
New Transformer.2395719 phases=3 windings=2 Xhl=1.200
~ wdg=1 bus=19642-8840839.1.2.3 conn=delta Kv=13.8 Kva=150.0 %R=0.500
~ wdg=2 bus=2395719-8840839v.1.2.3.4 conn=wye Kv=0.2200 Kva=150.0 %R=0.500
New Transformer.3114925 phases=3 windings=2 Xhl=1.200
~ wdg=1 bus=13120-12452474.1.2.3 conn=delta Kv=13.8 Kva=112.5 %R=0.500
~ wdg=2 bus=3114925-12452474v.1.2.3.4 conn=wye Kv=0.2200 Kva=112.5 %R=0.500
New Transformer.2411095 phases=1 windings=3 Xhl=1.200 Xht=1.200 Xlt=0.600
~ wdg=1 bus=13137-8906315.1 conn=wye Kv=7.9674 Kva=10.0 %R=0.500
~ wdg=2 bus=2411095-8906315v.1.4 conn=wye Kv=0.1100 Kva=10.0 %R=0.500
~ wdg=3 bus=2411095-8906315v.4.2 conn=wye Kv=0.1100 Kva=10.0 %R=0.500
New Transformer.2411626 phases=3 windings=2 Xhl=1.200
~ wdg=1 bus=13137-8900041.1.2.3 conn=delta Kv=13.8 Kva=30.0 %R=0.500
~ wdg=2 bus=2411626-8900041v.1.2.3.4 conn=wye Kv=0.2200 Kva=30.0 %R=0.500
New Transformer.2410987 phases=1 windings=3 Xhl=1.200 Xht=1.200 Xlt=0.600
~ wdg=1 bus=13137-8906431.1 conn=wye Kv=7.9674 Kva=5.0 %R=0.500
~ wdg=2 bus=2410987-8906431v.1.4 conn=wye Kv=0.1100 Kva=5.0 %R=0.500
~ wdg=3 bus=2410987-8906431v.4.2 conn=wye Kv=0.1100 Kva=5.0 %R=0.500
New Transformer.2411756 phases=3 windings=2 Xhl=1.200
~ wdg=1 bus=13137-8901359.1.2.3 conn=delta Kv=13.8 Kva=150.0 %R=0.500
~ wdg=2 bus=2411756-8901359v.1.2.3.4 conn=wye Kv=0.2200 Kva=150.0 %R=0.500
New Transformer.2411967 phases=1 windings=3 Xhl=1.200 Xht=1.200 Xlt=0.600
~ wdg=1 bus=13137-8907538.2 conn=wye Kv=7.9674 Kva=25.0 %R=0.500
~ wdg=2 bus=2411967-8907538v.1.4 conn=wye Kv=0.1100 Kva=25.0 %R=0.500
~ wdg=3 bus=2411967-8907538v.4.2 conn=wye Kv=0.1100 Kva=25.0 %R=0.500
New Transformer.2395715 phases=1 windings=3 Xhl=1.200 Xht=1.200 Xlt=0.600
~ wdg=1 bus=19642-8841323.3 conn=wye Kv=7.9674 Kva=15.0 %R=0.500
~ wdg=2 bus=2395715-8841323v.1.4 conn=wye Kv=0.1100 Kva=15.0 %R=0.500
~ wdg=3 bus=2395715-8841323v.4.2 conn=wye Kv=0.1100 Kva=15.0 %R=0.500
New Transformer.2397932 phases=3 windings=2 Xhl=1.200
~ wdg=1 bus=13120-8864181.1.2.3 conn=delta Kv=13.8 Kva=30.0 %R=0.500
~ wdg=2 bus=2397932-8864181v.1.2.3.4 conn=wye Kv=0.2200 Kva=30.0 %R=0.500
New Transformer.3151895 phases=1 windings=3 Xhl=1.200 Xht=1.200 Xlt=0.600
~ wdg=1 bus=13137-12664749.1 conn=wye Kv=7.9674 Kva=15.0 %R=0.500
~ wdg=2 bus=3151895-12664749v.1.4 conn=wye Kv=0.1100 Kva=15.0 %R=0.500
~ wdg=3 bus=3151895-12664749v.4.2 conn=wye Kv=0.1100 Kva=15.0 %R=0.500
New Transformer.2411579 phases=1 windings=3 Xhl=1.200 Xht=1.200 Xlt=0.600
~ wdg=1 bus=13137-8905020.3 conn=wye Kv=7.9674 Kva=5.0 %R=0.500
~ wdg=2 bus=2411579-8905020v.1.4 conn=wye Kv=0.1100 Kva=5.0 %R=0.500
~ wdg=3 bus=2411579-8905020v.4.2 conn=wye Kv=0.1100 Kva=5.0 %R=0.500
New Transformer.2410950 phases=1 windings=3 Xhl=1.200 Xht=1.200 Xlt=0.600
~ wdg=1 bus=13137-8905424cf.2 conn=wye Kv=7.9674 Kva=10.0 %R=0.500
~ wdg=2 bus=2410950-8905424v.1.4 conn=wye Kv=0.1100 Kva=10.0 %R=0.500
~ wdg=3 bus=2410950-8905424v.4.2 conn=wye Kv=0.1100 Kva=10.0 %R=0.500
New Transformer.2411612 phases=1 windings=3 Xhl=1.200 Xht=1.200 Xlt=0.600
~ wdg=1 bus=13137-8908723.3 conn=wye Kv=7.9674 Kva=10.0 %R=0.500
~ wdg=2 bus=2411612-8908723v.1.4 conn=wye Kv=0.1100 Kva=10.0 %R=0.500
~ wdg=3 bus=2411612-8908723v.4.2 conn=wye Kv=0.1100 Kva=10.0 %R=0.500
New Transformer.3056206 phases=1 windings=3 Xhl=1.200 Xht=1.200 Xlt=0.600
~ wdg=1 bus=13137-12059751.2 conn=wye Kv=7.9674 Kva=5.0 %R=0.500
~ wdg=2 bus=3056206-12059751v.1.4 conn=wye Kv=0.1100 Kva=5.0 %R=0.500
~ wdg=3 bus=3056206-12059751v.4.2 conn=wye Kv=0.1100 Kva=5.0 %R=0.500
New Transformer.2411666 phases=1 windings=3 Xhl=1.200 Xht=1.200 Xlt=0.600
~ wdg=1 bus=13137-8899994.2 conn=wye Kv=7.9674 Kva=10.0 %R=0.500
~ wdg=2 bus=2411666-8899994v.1.4 conn=wye Kv=0.1100 Kva=10.0 %R=0.500
~ wdg=3 bus=2411666-8899994v.4.2 conn=wye Kv=0.1100 Kva=10.0 %R=0.500
New Transformer.2411556 phases=1 windings=3 Xhl=1.200 Xht=1.200 Xlt=0.600
~ wdg=1 bus=13137-8904305.2 conn=wye Kv=7.9674 Kva=10.0 %R=0.500
~ wdg=2 bus=2411556-8904305v.1.4 conn=wye Kv=0.1100 Kva=10.0 %R=0.500
~ wdg=3 bus=2411556-8904305v.4.2 conn=wye Kv=0.1100 Kva=10.0 %R=0.500
New Transformer.2412065 phases=1 windings=3 Xhl=1.200 Xht=1.200 Xlt=0.600
~ wdg=1 bus=13137-8900294cf.2 conn=wye Kv=7.9674 Kva=10.0 %R=0.500
~ wdg=2 bus=2412065-8900294v.1.4 conn=wye Kv=0.1100 Kva=10.0 %R=0.500
~ wdg=3 bus=2412065-8900294v.4.2 conn=wye Kv=0.1100 Kva=10.0 %R=0.500
New Transformer.2411993 phases=1 windings=3 Xhl=1.200 Xht=1.200 Xlt=0.600
~ wdg=1 bus=13137-8903912.3 conn=wye Kv=7.9674 Kva=10.0 %R=0.500
~ wdg=2 bus=2411993-8903912v.1.4 conn=wye Kv=0.1100 Kva=10.0 %R=0.500
~ wdg=3 bus=2411993-8903912v.4.2 conn=wye Kv=0.1100 Kva=10.0 %R=0.500
New Transformer.2411848 phases=1 windings=3 Xhl=1.200 Xht=1.200 Xlt=0.600
~ wdg=1 bus=13137-8899913cf.2 conn=wye Kv=7.9674 Kva=10.0 %R=0.500
~ wdg=2 bus=2411848-8899913v.1.4 conn=wye Kv=0.1100 Kva=10.0 %R=0.500
~ wdg=3 bus=2411848-8899913v.4.2 conn=wye Kv=0.1100 Kva=10.0 %R=0.500
New Transformer.2412206 phases=1 windings=3 Xhl=1.200 Xht=1.200 Xlt=0.600
~ wdg=1 bus=13137-8904012.1 conn=wye Kv=7.9674 Kva=15.0 %R=0.500
~ wdg=2 bus=2412206-8904012v.1.4 conn=wye Kv=0.1100 Kva=15.0 %R=0.500
~ wdg=3 bus=2412206-8904012v.4.2 conn=wye Kv=0.1100 Kva=15.0 %R=0.500
New Transformer.2411381 phases=1 windings=3 Xhl=1.200 Xht=1.200 Xlt=0.600
~ wdg=1 bus=13137-8900006cf.2 conn=wye Kv=7.9674 Kva=10.0 %R=0.500
~ wdg=2 bus=2411381-8900006v.1.4 conn=wye Kv=0.1100 Kva=10.0 %R=0.500
~ wdg=3 bus=2411381-8900006v.4.2 conn=wye Kv=0.1100 Kva=10.0 %R=0.500
New Transformer.2411017 phases=1 windings=3 Xhl=1.200 Xht=1.200 Xlt=0.600
~ wdg=1 bus=13137-8900010.3 conn=wye Kv=7.9674 Kva=10.0 %R=0.500
~ wdg=2 bus=2411017-8900010v.1.4 conn=wye Kv=0.1100 Kva=10.0 %R=0.500
~ wdg=3 bus=2411017-8900010v.4.2 conn=wye Kv=0.1100 Kva=10.0 %R=0.500
New Transformer.2410807 phases=1 windings=3 Xhl=1.200 Xht=1.200 Xlt=0.600
~ wdg=1 bus=13137-8904583cf.2 conn=wye Kv=7.9674 Kva=10.0 %R=0.500
~ wdg=2 bus=2410807-8904584.1.4 conn=wye Kv=0.1100 Kva=10.0 %R=0.500
~ wdg=3 bus=2410807-8904584.4.2 conn=wye Kv=0.1100 Kva=10.0 %R=0.500
New Transformer.2411317 phases=1 windings=3 Xhl=1.200 Xht=1.200 Xlt=0.600
~ wdg=1 bus=13137-8904104cf.2 conn=wye Kv=7.9674 Kva=10.0 %R=0.500
~ wdg=2 bus=2411317-8904104v.1.4 conn=wye Kv=0.1100 Kva=10.0 %R=0.500
~ wdg=3 bus=2411317-8904104v.4.2 conn=wye Kv=0.1100 Kva=10.0 %R=0.500
New Transformer.2411429 phases=1 windings=3 Xhl=1.200 Xht=1.200 Xlt=0.600
~ wdg=1 bus=13137-8899759cf.2 conn=wye Kv=7.9674 Kva=5.0 %R=0.500
~ wdg=2 bus=2411429-8899759v.1.4 conn=wye Kv=0.1100 Kva=5.0 %R=0.500
~ wdg=3 bus=2411429-8899759v.4.2 conn=wye Kv=0.1100 Kva=5.0 %R=0.500
New Transformer.2411829 phases=1 windings=3 Xhl=1.200 Xht=1.200 Xlt=0.600
~ wdg=1 bus=13137-8901292cf.2 conn=wye Kv=7.9674 Kva=10.0 %R=0.500
~ wdg=2 bus=2411829-8901292v.1.4 conn=wye Kv=0.1100 Kva=10.0 %R=0.500
~ wdg=3 bus=2411829-8901292v.4.2 conn=wye Kv=0.1100 Kva=10.0 %R=0.500
New Transformer.2412103 phases=1 windings=3 Xhl=1.200 Xht=1.200 Xlt=0.600
~ wdg=1 bus=13137-8899491cf.1 conn=wye Kv=7.9674 Kva=10.0 %R=0.500
~ wdg=2 bus=2412103-8899491v.1.4 conn=wye Kv=0.1100 Kva=10.0 %R=0.500
~ wdg=3 bus=2412103-8899491v.4.2 conn=wye Kv=0.1100 Kva=10.0 %R=0.500
New Transformer.2411026 phases=1 windings=3 Xhl=1.200 Xht=1.200 Xlt=0.600
~ wdg=1 bus=13137-8901539cf.3 conn=wye Kv=7.9674 Kva=5.0 %R=0.500
~ wdg=2 bus=2411026-8901539v.1.4 conn=wye Kv=0.1100 Kva=5.0 %R=0.500
~ wdg=3 bus=2411026-8901539v.4.2 conn=wye Kv=0.1100 Kva=5.0 %R=0.500
New Transformer.2412008 phases=1 windings=3 Xhl=1.200 Xht=1.200 Xlt=0.600
~ wdg=1 bus=13137-8907468cf.2 conn=wye Kv=7.9674 Kva=10.0 %R=0.500
~ wdg=2 bus=2412008-8907468v.1.4 conn=wye Kv=0.1100 Kva=10.0 %R=0.500
~ wdg=3 bus=2412008-8907468v.4.2 conn=wye Kv=0.1100 Kva=10.0 %R=0.500
New Transformer.2410973 phases=1 windings=3 Xhl=1.200 Xht=1.200 Xlt=0.600
~ wdg=1 bus=13137-8907543.2 conn=wye Kv=7.9674 Kva=10.0 %R=0.500
~ wdg=2 bus=2410973-8907543v.1.4 conn=wye Kv=0.1100 Kva=10.0 %R=0.500
~ wdg=3 bus=2410973-8907543v.4.2 conn=wye Kv=0.1100 Kva=10.0 %R=0.500
New Transformer.2411557 phases=1 windings=3 Xhl=1.200 Xht=1.200 Xlt=0.600
~ wdg=1 bus=13137-8908092.1 conn=wye Kv=7.9674 Kva=10.0 %R=0.500
~ wdg=2 bus=2411557-8908092v.1.4 conn=wye Kv=0.1100 Kva=10.0 %R=0.500
~ wdg=3 bus=2411557-8908092v.4.2 conn=wye Kv=0.1100 Kva=10.0 %R=0.500
New Transformer.2411555 phases=1 windings=3 Xhl=1.200 Xht=1.200 Xlt=0.600
~ wdg=1 bus=13137-8907946cf.2 conn=wye Kv=7.9674 Kva=10.0 %R=0.500
~ wdg=2 bus=2411555-8907946v.1.4 conn=wye Kv=0.1100 Kva=10.0 %R=0.500
~ wdg=3 bus=2411555-8907946v.4.2 conn=wye Kv=0.1100 Kva=10.0 %R=0.500
New Transformer.2411711 phases=1 windings=3 Xhl=1.200 Xht=1.200 Xlt=0.600
~ wdg=1 bus=13137-8907580.1 conn=wye Kv=7.9674 Kva=10.0 %R=0.500
~ wdg=2 bus=2411711-8907580v.1.4 conn=wye Kv=0.1100 Kva=10.0 %R=0.500
~ wdg=3 bus=2411711-8907580v.4.2 conn=wye Kv=0.1100 Kva=10.0 %R=0.500
New Transformer.2412074 phases=1 windings=3 Xhl=1.200 Xht=1.200 Xlt=0.600
~ wdg=1 bus=13137-8907295.1 conn=wye Kv=7.9674 Kva=10.0 %R=0.500
~ wdg=2 bus=2412074-8907296.1.4 conn=wye Kv=0.1100 Kva=10.0 %R=0.500
~ wdg=3 bus=2412074-8907296.4.2 conn=wye Kv=0.1100 Kva=10.0 %R=0.500
New Transformer.2412114 phases=1 windings=3 Xhl=1.200 Xht=1.200 Xlt=0.600
~ wdg=1 bus=13137-8907817cf.2 conn=wye Kv=7.9674 Kva=10.0 %R=0.500
~ wdg=2 bus=2412114-8907817v.1.4 conn=wye Kv=0.1100 Kva=10.0 %R=0.500
~ wdg=3 bus=2412114-8907817v.4.2 conn=wye Kv=0.1100 Kva=10.0 %R=0.500
New Transformer.2395740 phases=1 windings=3 Xhl=1.200 Xht=1.200 Xlt=0.600
~ wdg=1 bus=19642-8840961.3 conn=wye Kv=7.9674 Kva=10.0 %R=0.500
~ wdg=2 bus=2395740-8840962.1.4 conn=wye Kv=0.1100 Kva=10.0 %R=0.500
~ wdg=3 bus=2395740-8840962.4.2 conn=wye Kv=0.1100 Kva=10.0 %R=0.500
New Transformer.2410849 phases=1 windings=3 Xhl=1.200 Xht=1.200 Xlt=0.600
~ wdg=1 bus=13137-8903100cf.2 conn=wye Kv=7.9674 Kva=15.0 %R=0.500
~ wdg=2 bus=2410849-8903101.1.4 conn=wye Kv=0.1100 Kva=15.0 %R=0.500
~ wdg=3 bus=2410849-8903101.4.2 conn=wye Kv=0.1100 Kva=15.0 %R=0.500
New Transformer.2412127 phases=1 windings=3 Xhl=1.200 Xht=1.200 Xlt=0.600
~ wdg=1 bus=13137-8902967.2 conn=wye Kv=7.9674 Kva=10.0 %R=0.500
~ wdg=2 bus=2412127-8902968.1.4 conn=wye Kv=0.1100 Kva=10.0 %R=0.500
~ wdg=3 bus=2412127-8902968.4.2 conn=wye Kv=0.1100 Kva=10.0 %R=0.500
New Transformer.2411280 phases=1 windings=3 Xhl=1.200 Xht=1.200 Xlt=0.600
~ wdg=1 bus=13137-8902970.3 conn=wye Kv=7.9674 Kva=5.0 %R=0.500
~ wdg=2 bus=2411280-8902970v.1.4 conn=wye Kv=0.1100 Kva=5.0 %R=0.500
~ wdg=3 bus=2411280-8902970v.4.2 conn=wye Kv=0.1100 Kva=5.0 %R=0.500
New Transformer.2411477 phases=1 windings=3 Xhl=1.200 Xht=1.200 Xlt=0.600
~ wdg=1 bus=13137-8902270cf.1 conn=wye Kv=7.9674 Kva=5.0 %R=0.500
~ wdg=2 bus=2411477-8902270v.1.4 conn=wye Kv=0.1100 Kva=5.0 %R=0.500
~ wdg=3 bus=2411477-8902270v.4.2 conn=wye Kv=0.1100 Kva=5.0 %R=0.500
New Transformer.2412073 phases=3 windings=2 Xhl=1.200
~ wdg=1 bus=13137-8901920cf.1.2.3 conn=delta Kv=13.8 Kva=75.0 %R=0.500
~ wdg=2 bus=2412073-8901921.1.2.3.4 conn=wye Kv=0.2200 Kva=75.0 %R=0.500
New Transformer.2411988 phases=1 windings=3 Xhl=1.200 Xht=1.200 Xlt=0.600
~ wdg=1 bus=13137-8902064cf.2 conn=wye Kv=7.9674 Kva=10.0 %R=0.500
~ wdg=2 bus=2411988-8902064v.1.4 conn=wye Kv=0.1100 Kva=10.0 %R=0.500
~ wdg=3 bus=2411988-8902064v.4.2 conn=wye Kv=0.1100 Kva=10.0 %R=0.500
New Transformer.2398030 phases=1 windings=3 Xhl=1.200 Xht=1.200 Xlt=0.600
~ wdg=1 bus=13120-8861394.3 conn=wye Kv=7.9674 Kva=10.0 %R=0.500
~ wdg=2 bus=2398030-8861394v.1.4 conn=wye Kv=0.1100 Kva=10.0 %R=0.500
~ wdg=3 bus=2398030-8861394v.4.2 conn=wye Kv=0.1100 Kva=10.0 %R=0.500
New Transformer.2398322 phases=1 windings=3 Xhl=1.200 Xht=1.200 Xlt=0.600
~ wdg=1 bus=13120-8863654.2 conn=wye Kv=7.9674 Kva=5.0 %R=0.500
~ wdg=2 bus=2398322-8863654v.1.4 conn=wye Kv=0.1100 Kva=5.0 %R=0.500
~ wdg=3 bus=2398322-8863654v.4.2 conn=wye Kv=0.1100 Kva=5.0 %R=0.500
New Transformer.2397767 phases=1 windings=3 Xhl=1.200 Xht=1.200 Xlt=0.600
~ wdg=1 bus=13120-8860032cf.3 conn=wye Kv=7.9674 Kva=10.0 %R=0.500
~ wdg=2 bus=2397767-8860032v.1.4 conn=wye Kv=0.1100 Kva=10.0 %R=0.500
~ wdg=3 bus=2397767-8860032v.4.2 conn=wye Kv=0.1100 Kva=10.0 %R=0.500
New Transformer.2397965 phases=1 windings=3 Xhl=1.200 Xht=1.200 Xlt=0.600
~ wdg=1 bus=13120-8860609.3 conn=wye Kv=7.9674 Kva=10.0 %R=0.500
~ wdg=2 bus=2397965-8860610.1.4 conn=wye Kv=0.1100 Kva=10.0 %R=0.500
~ wdg=3 bus=2397965-8860610.4.2 conn=wye Kv=0.1100 Kva=10.0 %R=0.500
New Transformer.2397776 phases=1 windings=3 Xhl=1.200 Xht=1.200 Xlt=0.600
~ wdg=1 bus=13120-8861193cf.3 conn=wye Kv=7.9674 Kva=10.0 %R=0.500
~ wdg=2 bus=2397776-8861193v.1.4 conn=wye Kv=0.1100 Kva=10.0 %R=0.500
~ wdg=3 bus=2397776-8861193v.4.2 conn=wye Kv=0.1100 Kva=10.0 %R=0.500
New Transformer.2398049 phases=1 windings=3 Xhl=1.200 Xht=1.200 Xlt=0.600
~ wdg=1 bus=13120-8862871cf.3 conn=wye Kv=7.9674 Kva=10.0 %R=0.500
~ wdg=2 bus=2398049-8862871v.1.4 conn=wye Kv=0.1100 Kva=10.0 %R=0.500
~ wdg=3 bus=2398049-8862871v.4.2 conn=wye Kv=0.1100 Kva=10.0 %R=0.500
New Transformer.2398329 phases=1 windings=3 Xhl=1.200 Xht=1.200 Xlt=0.600
~ wdg=1 bus=13120-8862967cf.3 conn=wye Kv=7.9674 Kva=10.0 %R=0.500
~ wdg=2 bus=2398329-8862967v.1.4 conn=wye Kv=0.1100 Kva=10.0 %R=0.500
~ wdg=3 bus=2398329-8862967v.4.2 conn=wye Kv=0.1100 Kva=10.0 %R=0.500
New Transformer.2398034 phases=1 windings=3 Xhl=1.200 Xht=1.200 Xlt=0.600
~ wdg=1 bus=13120-8863091cf.1 conn=wye Kv=7.9674 Kva=10.0 %R=0.500
~ wdg=2 bus=2398034-8863091v.1.4 conn=wye Kv=0.1100 Kva=10.0 %R=0.500
~ wdg=3 bus=2398034-8863091v.4.2 conn=wye Kv=0.1100 Kva=10.0 %R=0.500
New Transformer.2398109 phases=1 windings=3 Xhl=1.200 Xht=1.200 Xlt=0.600
~ wdg=1 bus=13120-8859922.3 conn=wye Kv=7.9674 Kva=10.0 %R=0.500
~ wdg=2 bus=2398109-8859923.1.4 conn=wye Kv=0.1100 Kva=10.0 %R=0.500
~ wdg=3 bus=2398109-8859923.4.2 conn=wye Kv=0.1100 Kva=10.0 %R=0.500
New Transformer.2398364 phases=1 windings=3 Xhl=1.200 Xht=1.200 Xlt=0.600
~ wdg=1 bus=13120-8861199cf.3 conn=wye Kv=7.9674 Kva=5.0 %R=0.500
~ wdg=2 bus=2398364-8861199v.1.4 conn=wye Kv=0.1100 Kva=5.0 %R=0.500
~ wdg=3 bus=2398364-8861199v.4.2 conn=wye Kv=0.1100 Kva=5.0 %R=0.500
New Transformer.2398040 phases=1 windings=3 Xhl=1.200 Xht=1.200 Xlt=0.600
~ wdg=1 bus=13120-8861796cf.3 conn=wye Kv=7.9674 Kva=5.0 %R=0.500
~ wdg=2 bus=2398040-8861796v.1.4 conn=wye Kv=0.1100 Kva=5.0 %R=0.500
~ wdg=3 bus=2398040-8861796v.4.2 conn=wye Kv=0.1100 Kva=5.0 %R=0.500
New Transformer.2398293 phases=1 windings=3 Xhl=1.200 Xht=1.200 Xlt=0.600
~ wdg=1 bus=13120-8862760cf.3 conn=wye Kv=7.9674 Kva=10.0 %R=0.500
~ wdg=2 bus=2398293-8862760v.1.4 conn=wye Kv=0.1100 Kva=10.0 %R=0.500
~ wdg=3 bus=2398293-8862760v.4.2 conn=wye Kv=0.1100 Kva=10.0 %R=0.500
New Transformer.2397835 phases=1 windings=3 Xhl=1.200 Xht=1.200 Xlt=0.600
~ wdg=1 bus=13120-8863317cf.1 conn=wye Kv=7.9674 Kva=10.0 %R=0.500
~ wdg=2 bus=2397835-8863317v.1.4 conn=wye Kv=0.1100 Kva=10.0 %R=0.500
~ wdg=3 bus=2397835-8863317v.4.2 conn=wye Kv=0.1100 Kva=10.0 %R=0.500
New Transformer.2398129 phases=1 windings=3 Xhl=1.200 Xht=1.200 Xlt=0.600
~ wdg=1 bus=13120-8863323.3 conn=wye Kv=7.9674 Kva=5.0 %R=0.500
~ wdg=2 bus=2398129-8863323v.1.4 conn=wye Kv=0.1100 Kva=5.0 %R=0.500
~ wdg=3 bus=2398129-8863323v.4.2 conn=wye Kv=0.1100 Kva=5.0 %R=0.500
New Transformer.2397944 phases=1 windings=3 Xhl=1.200 Xht=1.200 Xlt=0.600
~ wdg=1 bus=13120-8863282.1 conn=wye Kv=7.9674 Kva=10.0 %R=0.500
~ wdg=2 bus=2397944-8863282v.1.4 conn=wye Kv=0.1100 Kva=10.0 %R=0.500
~ wdg=3 bus=2397944-8863282v.4.2 conn=wye Kv=0.1100 Kva=10.0 %R=0.500
New Transformer.2398151 phases=1 windings=3 Xhl=1.200 Xht=1.200 Xlt=0.600
~ wdg=1 bus=13120-8863385cf.3 conn=wye Kv=7.9674 Kva=10.0 %R=0.500
~ wdg=2 bus=2398151-8863386.1.4 conn=wye Kv=0.1100 Kva=10.0 %R=0.500
~ wdg=3 bus=2398151-8863386.4.2 conn=wye Kv=0.1100 Kva=10.0 %R=0.500
New Transformer.GOI-T-2 phases=3 windings=2 Xhl=1.200
~ wdg=1 bus=goi-t-2-m.1.2.3 conn=delta Kv=13.8 Kva=65000.0 %R=0.250
~ wdg=2 bus=goi-t-2-j.1.2.3.4 conn=wye Kv=34.5000 Kva=65000.0 %R=0.250
New Transformer.2928958 phases=1 windings=3 Xhl=1.200 Xht=1.200 Xlt=0.600
~ wdg=1 bus=13120-11425065.2 conn=wye Kv=7.9674 Kva=5.0 %R=0.500
~ wdg=2 bus=2928958-11425065v.1.4 conn=wye Kv=0.1100 Kva=5.0 %R=0.500
~ wdg=3 bus=2928958-11425065v.4.2 conn=wye Kv=0.1100 Kva=5.0 %R=0.500
New Transformer.2929279 phases=1 windings=3 Xhl=1.200 Xht=1.200 Xlt=0.600
~ wdg=1 bus=13120-11425383.3 conn=wye Kv=7.9674 Kva=5.0 %R=0.500
~ wdg=2 bus=2929279-11425383v.1.4 conn=wye Kv=0.1100 Kva=5.0 %R=0.500
~ wdg=3 bus=2929279-11425383v.4.2 conn=wye Kv=0.1100 Kva=5.0 %R=0.500
New Transformer.3182244 phases=1 windings=3 Xhl=1.200 Xht=1.200 Xlt=0.600
~ wdg=1 bus=13120-12907918cf.2 conn=wye Kv=7.9674 Kva=5.0 %R=0.500
~ wdg=2 bus=3182244-12907918v.1.4 conn=wye Kv=0.1100 Kva=5.0 %R=0.500
~ wdg=3 bus=3182244-12907918v.4.2 conn=wye Kv=0.1100 Kva=5.0 %R=0.500
New Transformer.2972801 phases=1 windings=3 Xhl=1.200 Xht=1.200 Xlt=0.600
~ wdg=1 bus=13120-11425403cf.2 conn=wye Kv=7.9674 Kva=10.0 %R=0.500
~ wdg=2 bus=2972801-11609193.1.4 conn=wye Kv=0.1100 Kva=10.0 %R=0.500
~ wdg=3 bus=2972801-11609193.4.2 conn=wye Kv=0.1100 Kva=10.0 %R=0.500
New Transformer.2934131 phases=1 windings=3 Xhl=1.200 Xht=1.200 Xlt=0.600
~ wdg=1 bus=13120-11425739.3 conn=wye Kv=7.9674 Kva=10.0 %R=0.500
~ wdg=2 bus=2934131-11425739v.1.4 conn=wye Kv=0.1100 Kva=10.0 %R=0.500
~ wdg=3 bus=2934131-11425739v.4.2 conn=wye Kv=0.1100 Kva=10.0 %R=0.500
New Transformer.3171245 phases=1 windings=3 Xhl=1.200 Xht=1.200 Xlt=0.600
~ wdg=1 bus=13120-12813416.2 conn=wye Kv=7.9674 Kva=5.0 %R=0.500
~ wdg=2 bus=3171245-12813416v.1.4 conn=wye Kv=0.1100 Kva=5.0 %R=0.500
~ wdg=3 bus=3171245-12813416v.4.2 conn=wye Kv=0.1100 Kva=5.0 %R=0.500
New Transformer.3184742 phases=3 windings=2 Xhl=1.200
~ wdg=1 bus=13146-12927006.1.2.3 conn=delta Kv=13.8 Kva=75.0 %R=0.500
~ wdg=2 bus=3184742-12927006v.1.2.3.4 conn=wye Kv=0.2200 Kva=75.0 %R=0.500
New Transformer.2934349 phases=1 windings=3 Xhl=1.200 Xht=1.200 Xlt=0.600
~ wdg=1 bus=13120-11425803.3 conn=wye Kv=7.9674 Kva=5.0 %R=0.500
~ wdg=2 bus=2934349-11425803v.1.4 conn=wye Kv=0.1100 Kva=5.0 %R=0.500
~ wdg=3 bus=2934349-11425803v.4.2 conn=wye Kv=0.1100 Kva=5.0 %R=0.500
New Transformer.2929027 phases=1 windings=3 Xhl=1.200 Xht=1.200 Xlt=0.600
~ wdg=1 bus=13120-11425437.1 conn=wye Kv=7.9674 Kva=5.0 %R=0.500
~ wdg=2 bus=2929027-11425437v.1.4 conn=wye Kv=0.1100 Kva=5.0 %R=0.500
~ wdg=3 bus=2929027-11425437v.4.2 conn=wye Kv=0.1100 Kva=5.0 %R=0.500
New Transformer.2939543 phases=1 windings=3 Xhl=1.200 Xht=1.200 Xlt=0.600
~ wdg=1 bus=13120-11425394.3 conn=wye Kv=7.9674 Kva=5.0 %R=0.500
~ wdg=2 bus=2939543-11425394v.1.4 conn=wye Kv=0.1100 Kva=5.0 %R=0.500
~ wdg=3 bus=2939543-11425394v.4.2 conn=wye Kv=0.1100 Kva=5.0 %R=0.500
New Transformer.2929380 phases=1 windings=3 Xhl=1.200 Xht=1.200 Xlt=0.600
~ wdg=1 bus=13120-11425614.1 conn=wye Kv=7.9674 Kva=5.0 %R=0.500
~ wdg=2 bus=2929380-11425614v.1.4 conn=wye Kv=0.1100 Kva=5.0 %R=0.500
~ wdg=3 bus=2929380-11425614v.4.2 conn=wye Kv=0.1100 Kva=5.0 %R=0.500
New Transformer.2929042 phases=1 windings=3 Xhl=1.200 Xht=1.200 Xlt=0.600
~ wdg=1 bus=13120-11425034.1 conn=wye Kv=7.9674 Kva=10.0 %R=0.500
~ wdg=2 bus=2929042-11425034v.1.4 conn=wye Kv=0.1100 Kva=10.0 %R=0.500
~ wdg=3 bus=2929042-11425034v.4.2 conn=wye Kv=0.1100 Kva=10.0 %R=0.500
New Transformer.2929140 phases=1 windings=3 Xhl=1.200 Xht=1.200 Xlt=0.600
~ wdg=1 bus=13120-11425288.2 conn=wye Kv=7.9674 Kva=5.0 %R=0.500
~ wdg=2 bus=2929140-11425288v.1.4 conn=wye Kv=0.1100 Kva=5.0 %R=0.500
~ wdg=3 bus=2929140-11425288v.4.2 conn=wye Kv=0.1100 Kva=5.0 %R=0.500
New Transformer.2928583 phases=3 windings=2 Xhl=1.200
~ wdg=1 bus=13137-11424224.1.2.3 conn=delta Kv=13.8 Kva=45.0 %R=0.500
~ wdg=2 bus=2928583-11424224v.1.2.3.4 conn=wye Kv=0.2200 Kva=45.0 %R=0.500
New Transformer.2929081 phases=1 windings=3 Xhl=1.200 Xht=1.200 Xlt=0.600
~ wdg=1 bus=13120-11424846.1 conn=wye Kv=7.9674 Kva=10.0 %R=0.500
~ wdg=2 bus=2929081-11424846v.1.4 conn=wye Kv=0.1100 Kva=10.0 %R=0.500
~ wdg=3 bus=2929081-11424846v.4.2 conn=wye Kv=0.1100 Kva=10.0 %R=0.500
New Transformer.2934129 phases=1 windings=3 Xhl=1.200 Xht=1.200 Xlt=0.600
~ wdg=1 bus=13120-11425715.1 conn=wye Kv=7.9674 Kva=5.0 %R=0.500
~ wdg=2 bus=2934129-11425715v.1.4 conn=wye Kv=0.1100 Kva=5.0 %R=0.500
~ wdg=3 bus=2934129-11425715v.4.2 conn=wye Kv=0.1100 Kva=5.0 %R=0.500
New Transformer.3133982 phases=1 windings=3 Xhl=1.200 Xht=1.200 Xlt=0.600
~ wdg=1 bus=13137-8900357.2 conn=wye Kv=7.9674 Kva=10.0 %R=0.500
~ wdg=2 bus=3133982-8900357v.1.4 conn=wye Kv=0.1100 Kva=10.0 %R=0.500
~ wdg=3 bus=3133982-8900357v.4.2 conn=wye Kv=0.1100 Kva=10.0 %R=0.500
New Transformer.2929032 phases=1 windings=3 Xhl=1.200 Xht=1.200 Xlt=0.600
~ wdg=1 bus=13120-11425060.2 conn=wye Kv=7.9674 Kva=5.0 %R=0.500
~ wdg=2 bus=2929032-11425060v.1.4 conn=wye Kv=0.1100 Kva=5.0 %R=0.500
~ wdg=3 bus=2929032-11425060v.4.2 conn=wye Kv=0.1100 Kva=5.0 %R=0.500
New Transformer.2928936 phases=1 windings=3 Xhl=1.200 Xht=1.200 Xlt=0.600
~ wdg=1 bus=13120-11424576.1 conn=wye Kv=7.9674 Kva=10.0 %R=0.500
~ wdg=2 bus=2928936-11424576v.1.4 conn=wye Kv=0.1100 Kva=10.0 %R=0.500
~ wdg=3 bus=2928936-11424576v.4.2 conn=wye Kv=0.1100 Kva=10.0 %R=0.500
New Transformer.3171236 phases=1 windings=3 Xhl=1.200 Xht=1.200 Xlt=0.600
~ wdg=1 bus=13120-12813410.2 conn=wye Kv=7.9674 Kva=5.0 %R=0.500
~ wdg=2 bus=3171236-12813410v.1.4 conn=wye Kv=0.1100 Kva=5.0 %R=0.500
~ wdg=3 bus=3171236-12813410v.4.2 conn=wye Kv=0.1100 Kva=5.0 %R=0.500
New Transformer.2929131 phases=1 windings=3 Xhl=1.200 Xht=1.200 Xlt=0.600
~ wdg=1 bus=13120-11425272.3 conn=wye Kv=7.9674 Kva=5.0 %R=0.500
~ wdg=2 bus=2929131-11425272v.1.4 conn=wye Kv=0.1100 Kva=5.0 %R=0.500
~ wdg=3 bus=2929131-11425272v.4.2 conn=wye Kv=0.1100 Kva=5.0 %R=0.500
New Transformer.2929187 phases=1 windings=3 Xhl=1.200 Xht=1.200 Xlt=0.600
~ wdg=1 bus=13120-11424988.2 conn=wye Kv=7.9674 Kva=5.0 %R=0.500
~ wdg=2 bus=2929187-11424988v.1.4 conn=wye Kv=0.1100 Kva=5.0 %R=0.500
~ wdg=3 bus=2929187-11424988v.4.2 conn=wye Kv=0.1100 Kva=5.0 %R=0.500
New Transformer.2929007 phases=1 windings=3 Xhl=1.200 Xht=1.200 Xlt=0.600
~ wdg=1 bus=13120-11425000.3 conn=wye Kv=7.9674 Kva=5.0 %R=0.500
~ wdg=2 bus=2929007-11425000v.1.4 conn=wye Kv=0.1100 Kva=5.0 %R=0.500
~ wdg=3 bus=2929007-11425000v.4.2 conn=wye Kv=0.1100 Kva=5.0 %R=0.500
New Transformer.2928945 phases=1 windings=3 Xhl=1.200 Xht=1.200 Xlt=0.600
~ wdg=1 bus=13120-11424591.1 conn=wye Kv=7.9674 Kva=5.0 %R=0.500
~ wdg=2 bus=2928945-11424591v.1.4 conn=wye Kv=0.1100 Kva=5.0 %R=0.500
~ wdg=3 bus=2928945-11424591v.4.2 conn=wye Kv=0.1100 Kva=5.0 %R=0.500
New Transformer.2929355 phases=1 windings=3 Xhl=1.200 Xht=1.200 Xlt=0.600
~ wdg=1 bus=13120-11425561.3 conn=wye Kv=7.9674 Kva=5.0 %R=0.500
~ wdg=2 bus=2929355-11425561v.1.4 conn=wye Kv=0.1100 Kva=5.0 %R=0.500
~ wdg=3 bus=2929355-11425561v.4.2 conn=wye Kv=0.1100 Kva=5.0 %R=0.500
New Transformer.2965255 phases=1 windings=3 Xhl=1.200 Xht=1.200 Xlt=0.600
~ wdg=1 bus=13120-11567588.2 conn=wye Kv=7.9674 Kva=5.0 %R=0.500
...